src/tests/data/grids/11_05_sp.dgs
********************************************************************************
*
* DIgSILENT (R) DGS Export V1.8.4
* Copyright 1997-2026 DIgSILENT GmbH. All rights reserved.
*
* DIgSILENT (C) PowerFactory V25.0.3.0
*
* Date:     05/21/2026 15:34
* Project:  SPTL_11_05 (Study Case: Y01 (2024/25))
*
********************************************************************************


$$General;FID(a:40);Descr(a:40);Val(a:255)
  1;Version;7.0


$$ChaVec;FID(a:40);OP(a:1);loc_name(a:80);fold_id(p);scale(p);usage(i);approx(i);vector:SIZEROW(i);vector:0(r);vector:1(r);vector:2(r)
  2;C;sline;2891;;0;0;3;100;90,90909091;90,90909091
  3;C;sline;2874;;0;0;3;100;93,1;80,17
  4;C;sline;2875;;0;0;3;100;93,94;84,85
  5;C;sline;2876;;0;0;3;100;95,89;88,36
  6;C;sline;2877;;0;0;3;100;92,31;77,62
  7;C;sline;2878;;0;0;3;100;95,2;87,2
  8;C;sline;2879;;0;0;3;100;96,53;89,53
  9;C;sline;2880;;2;0;3;6;5,79;5,37
  10;C;sline;2881;;0;0;3;100;95,05;86,81
  11;C;sline;2882;;0;0;3;100;96,53;89,53
  12;C;ContRating;;;2;0;3;1120;1060;990
  13;C;ContRating;;;2;0;3;935;785;785
  14;C;ContRating;;;2;0;3;38;38;38
  15;C;ContRating;;;2;0;3;38;38;38
  16;C;ContRating;;;2;0;3;132;123;106
  17;C;ContRating;;;2;0;3;132;123;106
  18;C;ContRating;;;2;0;3;24;20;16
  19;C;ContRating;;;2;0;3;23;19;19
  20;C;ContRating;;;2;0;3;23;19;19
  21;C;ContRating;;;2;0;3;1120;1060;990
  22;C;ContRating;;;2;0;3;1120;1060;990
  23;C;ContRating;;;2;0;3;155;155;155
  24;C;ContRating;;;2;0;3;38;38;38
  25;C;ContRating;;;2;0;3;38;38;38
  26;C;ContRating;;;2;0;3;38;38;38
  27;C;ContRating;;;2;0;3;2470;2350;2150
  28;C;ContRating;;;2;0;3;2473;2349;2148
  29;C;ContRating;;;2;0;3;276;240;240
  30;C;ContRating;;;2;0;3;276;240;240
  31;C;ContRating;;;2;0;3;232;198;188
  32;C;ContRating;;;2;0;3;115;104,3;104,3
  33;C;ContRating;;;2;0;3;232;198;188
  34;C;ContRating;;;2;0;3;115;104,3;104,3
  35;C;ContRating;;;2;0;3;45;45;45
  36;C;ContRating;;;2;0;3;164;151;127
  37;C;ContRating;;;2;0;3;154;131;127
  38;C;ContRating;;;2;0;3;20,77;19,9;19,99
  39;C;ContRating;;;2;0;3;21;20;20
  40;C;ContRating;;;2;0;3;42;42;42
  41;C;ContRating;;;2;0;3;132;123;106
  42;C;ContRating;;;2;0;3;132;123;106
  43;C;ContRating;;;2;0;3;14;11;11
  44;C;ContRating;;;2;0;3;1165;920;920
  45;C;ContRating;;;2;0;3;2770;2770;2660
  46;C;ContRating;;;2;0;3;2520;2400;2190
  47;C;ContRating;;;2;0;3;132;122;106
  48;C;ContRating;;;2;0;3;100;100;100
  49;C;ContRating;;;2;0;3;115;104,3;104,3
  50;C;ContRating;;;2;0;3;115;104,3;104,3
  51;C;ContRating;;;2;0;3;1190;1190;1190
  52;C;ContRating;;;2;0;3;276;240;240
  53;C;ContRating;;;2;0;3;276;240;240
  54;C;ContRating;;;2;0;3;21;20;20
  55;C;ContRating;;;2;0;3;21;20;20
  56;C;ContRating;;;2;0;3;25;20;20
  57;C;ContRating;;;2;0;3;25;20;20
  58;C;ContRating;;;2;0;3;270;270;270
  59;C;ContRating;;;2;0;3;360;300;240
  60;C;ContRating;;;2;0;3;270;270;270
  61;C;ContRating;;;2;0;3;2470;2350;2150


$$ElmAsm;FID(a:40);OP(a:1);loc_name(a:80);fold_id(p);typ_id(p);ngnum(i);i_mot(i);pgini(r);outserv(i);idfig(i);bustp(a:4);qgini(r);cCategory(a);pmode(i)
  62;C;WTG_BOWB0A;258;2873;1;0;6,3;0;0;AS;0;Wind;0
  63;C;WTG_BOWB0B;258;2873;1;0;6,3;0;0;AS;0;Wind;0


$$ElmBranch;FID(a:40);OP(a:1);loc_name(a:80);fold_id(p);iDatCon0(i);iDatCon1(i)
  64;C;br_BERW1Q_ECCL1-_1;258;0;1
  65;C;br_BERW1R_ECCL1-_1;258;0;1
  66;C;br_BOWB31_KAIM3-_1;258;0;0
  67;C;br_BOWB32_KAIM3-_1;258;0;0
  68;C;br_COCK2-_KAIM2-_1;258;0;0
  69;C;br_CRYR4-_TORN4-_1;258;0;1
  70;C;br_DUNB1Q_INWI1Q_1;258;0;1
  71;C;br_DUNB1R_INWI1R_1;258;0;1
  72;C;br_DUNE1-_SMEA1-_1;258;0;0
  73;C;br_ECCL1-_GALA1-_1;258;1;0
  74;C;br_ECCL1-_GALA1-_2;258;1;0
  75;C;br_ECCL4A_TORN4-_1;258;0;1
  76;C;br_ECCL4B_TORN4-_1;258;0;1
  77;C;br_NNGA2-_NNGA2G_1;258;0;0
  78;C;br_NNGB2-_NNGB2G_1;258;0;0
  79;C;br_POOB2Q_SMEA2-_1;258;0;1
  80;C;br_POOB2R_SMEA2-_1;258;0;1


$$ElmCoup;FID(a:40);OP(a:1);loc_name(a:80);fold_id(p);typ_id(p);on_off(i);aUsage(a:4);nphase(i);nneutral(i)
  81;C;brk_ECCL4A_ECCL4B_1;258;;0;cbk;3;0
  82;C;brk_ECCL4A_ECCL4C_1;258;;0;cbk;3;0
  83;C;brk_ECCL4B_ECCL4D_1;258;;0;cbk;3;0
  84;C;brk_SHRU3A_SHRU3B_1;258;;1;cbk;3;0


$$ElmGenstat;FID(a:40);OP(a:1);loc_name(a:80);fold_id(p);outserv(i);sgn(r);cosn(r);cCategory(a);av_mode(a);mode_inp(a:6);pgini(r);qgini(r);sgini(r);cosgini(r);pf_recap(i);phtech(i);ngnum(i);ip_ctrl(i);usetp(r);phiini(r);Kpf(r);scale0(r);ddroop(r);usp_max(r);usp_min(r);cQ_min(r);cQ_max(r)
  85;C;EMH_BERW3-_H2;517;0;100;1;Renewable generation;constq;DEF;0;0;0;1;0;0;1;0;1;0;0;1;1;1,1;0,9;-0,099;0,099
  86;C;EMH_COCK3-_H2;517;0;100;1;Renewable generation;constq;DEF;0;0;0;1;0;0;1;0;1;0;0;1;1;1,1;0,9;-0,099;0,099
  87;C;EMH_DEWP3-_H2;517;0;100;1;Renewable generation;constq;DEF;0;0;0;1;0;0;1;0;1;0;0;1;1;1,1;0,9;-0,099;0,099
  88;C;EMH_DUNB3A_H2;517;0;100;1;Renewable generation;constq;DEF;0;0;0;1;0;0;1;0;1;0;0;1;1;1,1;0,9;-0,099;0,099
  89;C;EMH_DUNB3B_H2;517;0;100;1;Renewable generation;constq;DEF;0;0;0;1;0;0;1;0;1;0;0;1;1;1,1;0,9;-0,099;0,099
  90;C;EMH_ECCL3-_H2;517;0;100;1;Renewable generation;constq;DEF;0;0;0;1;0;0;1;0;1;0;0;1;1;1,1;0,9;-0,099;0,099
  91;C;EMH_GALA3-_H2;517;0;100;1;Renewable generation;constq;DEF;0,3;0;0,3;1;0;0;1;0;1;0;0;1;1;1,1;0,9;-0,099;0,099
  92;C;EMH_KAIM3-_H2;517;0;100;1;Renewable generation;constq;DEF;0,3;0;0,3;1;0;0;1;0;1;0;0;1;1;1,1;0,9;-0,099;0,099
  93;C;EMH_POOB3-_H2;517;0;100;1;Renewable generation;constq;DEF;0;0;0;1;0;0;1;0;1;0;0;1;1;1,1;0,9;-0,099;0,099
  94;C;EMH_SHRU3A_H2;517;0;100;1;Renewable generation;constq;DEF;0;0;0;1;0;0;1;0;1;0;0;1;1;1,1;0,9;-0,099;0,099
  95;C;EMH_SHRU3B_H2;517;0;100;1;Renewable generation;constq;DEF;0;0;0;1;0;0;1;0;1;0;0;1;1;1,1;0,9;-0,099;0,099
  96;C;EMH_WHHO3-_H2;517;0;100;1;Renewable generation;constq;DEF;0;0;0;1;0;0;1;0;1;0;0;1;1;1,1;0,9;-0,099;0,099
  97;C;EMO_BERW3-_N2;517;0;100;1;Renewable generation;constq;DEF;0,3;0;0,3;1;0;0;1;0;1;0;0;1;1;1,1;0,9;-0,099;0,099
  98;C;EMO_COCK3-_N2;517;0;100;1;Renewable generation;constq;DEF;1,3;0;1,3;1;0;0;1;0;1;0;0;1;1;1,1;0,9;-0,099;0,099
  99;C;EMO_DEWP3-_N2;517;0;100;1;Renewable generation;constq;DEF;0;0;0;1;0;0;1;0;1;0;0;1;1;1,1;0,9;-0,099;0,099
  100;C;EMO_DUNB3A_N2;517;0;100;1;Renewable generation;constq;DEF;0;0;0;1;0;0;1;0;1;0;0;1;1;1,1;0,9;-0,099;0,099
  101;C;EMO_DUNB3B_N2;517;0;100;1;Renewable generation;constq;DEF;2,3;0;2,3;1;0;0;1;0;1;0;0;1;1;1,1;0,9;-0,099;0,099
  102;C;EMO_ECCL3-_N2;517;0;100;1;Renewable generation;constq;DEF;0,1;0;0,1;1;0;0;1;0;1;0;0;1;1;1,1;0,9;-0,099;0,099
  103;C;EMO_GALA3-_N2;517;0;100;1;Renewable generation;constq;DEF;2;0;2;1;0;0;1;0;1;0;0;1;1;1,1;0,9;-0,099;0,099
  104;C;EMO_KAIM3-_N2;517;0;100;1;Renewable generation;constq;DEF;2,6;0;2,6;1;0;0;1;0;1;0;0;1;1;1,1;0,9;-0,099;0,099
  105;C;EMO_POOB3-_N2;517;0;100;1;Renewable generation;constq;DEF;17,1;0;17,1;1;0;0;1;0;1;0;0;1;1;1,1;0,9;-0,099;0,099
  106;C;EMO_SHRU3A_N2;517;0;100;1;Renewable generation;constq;DEF;0;0;0;1;0;0;1;0;1;0;0;1;1;1,1;0,9;-0,099;0,099
  107;C;EMO_SHRU3B_N2;517;0;100;1;Renewable generation;constq;DEF;0;0;0;1;0;0;1;0;1;0;0;1;1;1,1;0,9;-0,099;0,099
  108;C;EMO_WHHO3-_N2;517;0;100;1;Renewable generation;constq;DEF;0;0;0;1;0;0;1;0;1;0;0;1;1;1,1;0,9;-0,099;0,099
  109;C;EMP_BERW3-_P2;517;0;100;1;Storage;constq;DEF;0;0;0;1;0;0;1;0;1;0;0;1;1;1,1;0,9;-0,099;0,099
  110;C;EMP_COCK3-_P2;517;0;100;1;Storage;constq;DEF;0;0;0;1;0;0;1;0;1;0;0;1;1;1,1;0,9;-0,099;0,099
  111;C;EMP_DEWP3-_P2;517;0;100;1;Storage;constq;DEF;0;0;0;1;0;0;1;0;1;0;0;1;1;1,1;0,9;-0,099;0,099
  112;C;EMP_DUNB3A_P2;517;0;100;1;Storage;constq;DEF;0;0;0;1;0;0;1;0;1;0;0;1;1;1,1;0,9;-0,099;0,099
  113;C;EMP_DUNB3B_P2;517;0;100;1;Storage;constq;DEF;0;0;0;1;0;0;1;0;1;0;0;1;1;1,1;0,9;-0,099;0,099
  114;C;EMP_ECCL3-_P2;517;0;100;1;Storage;constq;DEF;0;0;0;1;0;0;1;0;1;0;0;1;1;1,1;0,9;-0,099;0,099
  115;C;EMP_GALA3-_P2;517;0;100;1;Storage;constq;DEF;0;0;0;1;0;0;1;0;1;0;0;1;1;1,1;0,9;-0,099;0,099
  116;C;EMP_KAIM3-_P2;517;0;100;1;Storage;constq;DEF;0,1;0;0,1;1;0;0;1;0;1;0;0;1;1;1,1;0,9;-0,099;0,099
  117;C;EMP_POOB3-_P2;517;0;100;1;Storage;constq;DEF;0;0;0;1;0;0;1;0;1;0;0;1;1;1,1;0,9;-0,099;0,099
  118;C;EMP_SHRU3A_P2;517;0;100;1;Storage;constq;DEF;0;0;0;1;0;0;1;0;1;0;0;1;1;1,1;0,9;-0,099;0,099
  119;C;EMP_SHRU3B-_P2;517;0;100;1;Storage;constq;DEF;0;0;0;1;0;0;1;0;1;0;0;1;1;1,1;0,9;-0,099;0,099
  120;C;EMP_WHHO3-_P2;517;0;100;1;Storage;constq;DEF;0;0;0;1;0;0;1;0;1;0;0;1;1;1,1;0,9;-0,099;0,099
  121;C;EMS_BERW3-_S2;517;0;100;1;Photovoltaic;constq;DEF;0;0;0;1;0;0;1;0;1;0;0;1;1;1,1;0,9;-0,099;0,099
  122;C;EMS_COCK3-_S2;517;0;100;1;Photovoltaic;constq;DEF;0;0;0;1;0;0;1;0;1;0;0;1;1;1,1;0,9;-0,099;0,099
  123;C;EMS_DEWP3-_S2;517;0;100;1;Photovoltaic;constq;DEF;0;0;0;1;0;0;1;0;1;0;0;1;1;1,1;0,9;-0,099;0,099
  124;C;EMS_DUNB3A_S2;517;0;100;1;Photovoltaic;constq;DEF;0;0;0;1;0;0;1;0;1;0;0;1;1;1,1;0,9;-0,099;0,099
  125;C;EMS_DUNB3B_S2;517;0;100;1;Photovoltaic;constq;DEF;0;0;0;1;0;0;1;0;1;0;0;1;1;1,1;0,9;-0,099;0,099
  126;C;EMS_ECCL3-_S2;517;0;100;1;Photovoltaic;constq;DEF;0;0;0;1;0;0;1;0;1;0;0;1;1;1,1;0,9;-0,099;0,099
  127;C;EMS_GALA3-_S2;517;0;100;1;Photovoltaic;constq;DEF;0;0;0;1;0;0;1;0;1;0;0;1;1;1,1;0,9;-0,099;0,099
  128;C;EMS_KAIM3-_S2;517;0;100;1;Photovoltaic;constq;DEF;0;0;0;1;0;0;1;0;1;0;0;1;1;1,1;0,9;-0,099;0,099
  129;C;EMS_POOB3-_S2;517;0;100;1;Photovoltaic;constq;DEF;0;0;0;1;0;0;1;0;1;0;0;1;1;1,1;0,9;-0,099;0,099
  130;C;EMS_SHRU3A_S2;517;0;100;1;Photovoltaic;constq;DEF;0;0;0;1;0;0;1;0;1;0;0;1;1;1,1;0,9;-0,099;0,099
  131;C;EMS_SHRU3B_S2;517;0;100;1;Photovoltaic;constq;DEF;0;0;0;1;0;0;1;0;1;0;0;1;1;1,1;0,9;-0,099;0,099
  132;C;EMS_WHHO3-_S2;517;0;100;1;Photovoltaic;constq;DEF;0;0;0;1;0;0;1;0;1;0;0;1;1;1,1;0,9;-0,099;0,099
  133;C;EMW_BERW3-_W2;517;0;107,7144;1;Wind;constq;DEF;43,1;0;43,1;1;0;0;1;0;1;0;0;1;1;1,1;0,9;-0,106637;0,106637
  134;C;EMW_COCK3-_W2;517;0;100;1;Wind;constq;DEF;0,3;0;0,3;1;0;0;1;0;1;0;0;1;1;1,1;0,9;-0,099;0,099
  135;C;EMW_DEWP3-_W2;517;0;100;1;Wind;constq;DEF;0;0;0;1;0;0;1;0;1;0;0;1;1;1,1;0,9;-0,099;0,099
  136;C;EMW_DUNB3A_W2;517;0;100;1;Wind;constq;DEF;0;0;0;1;0;0;1;0;1;0;0;1;1;1,1;0,9;-0,099;0,099
  137;C;EMW_DUNB3B_W2;517;0;100;1;Wind;constq;DEF;6,6;0;6,6;1;0;0;1;0;1;0;0;1;1;1,1;0,9;-0,099;0,099
  138;C;EMW_ECCL3-_W2;517;0;100;1;Wind;constq;DEF;12,7;0;12,7;1;0;0;1;0;1;0;0;1;1;1,1;0,9;-0,099;0,099
  139;C;EMW_GALA3-_W2;517;0;100;1;Wind;constq;DEF;7,6;0;7,6;1;0;0;1;0;1;0;0;1;1;1,1;0,9;-0,099;0,099
  140;C;EMW_KAIM3-_W2;517;0;100;1;Wind;constq;DEF;1;0;1;1;0;0;1;0;1;0;0;1;1;1,1;0,9;-0,099;0,099
  141;C;EMW_POOB3-_W2;517;0;100;1;Wind;constq;DEF;2,5;0;2,5;1;0;0;1;0;1;0;0;1;1;1,1;0,9;-0,099;0,099
  142;C;EMW_SHRU3A_W2;517;0;100;1;Wind;constq;DEF;0;0;0;1;0;0;1;0;1;0;0;1;1;1,1;0,9;-0,099;0,099
  143;C;EMW_SHRU3B_W2;517;0;100;1;Wind;constq;DEF;0;0;0;1;0;0;1;0;1;0;0;1;1;1,1;0,9;-0,099;0,099
  144;C;EMW_WHHO3-_W2;517;0;100;1;Wind;constq;DEF;0;0;0;1;0;0;1;0;1;0;0;1;1;1,1;0,9;-0,099;0,099
  145;C;WTG_AIKE0A_1;258;0;71,9;0,9;Wind;vdroop;DEF;29;0;29;1;0;0;1;0;1,02;0;0;1;3;1,05;0,95;-19,24481;30,69538
  146;C;WTG_AIKE0B_1;258;0;86;0,95;Wind;vdroop;DEF;29;0;29;1;0;0;1;0;1,01;0;0;1;3;1,05;0,95;-23,01883;36,71492
  147;C;WTG_AIKE0G_1;258;0;53,4;0,9;Wind;vdroop;DEF;19,2;0;19,2;1;0;0;1;0;1,01;0;0;1;3;1,05;0,95;-10,83353;19,85479
  148;C;WTG_CRYR01_1;258;0;111,111;0,9;Wind;vdroop;DEF;40;0;40;1;0;0;1;0;1,01;0;0;1;3;1,05;0,95;-28,36167;54,45581
  149;C;WTG_CRYR02_1;258;0;111,111;0,9;Wind;vdroop;DEF;40;0;40;1;0;0;1;0;1,01;0;0;1;3;1,05;0,95;-29,85985;50,15614
  150;C;WTG_CRYR0G_1;258;0;69,44445;0,9;Wind;vdroop;DEF;25;0;25;1;0;0;1;0;1,01;0;0;1;3;1,05;0,95;-22;23,94
  151;C;WTG_DUNE0G_1;258;0;32,457;0,9166;Wind;vdroop;DEF;11,9;0;11,9;1;0;0;1;0;1,02;0;0;1;3;1,05;0,95;-8;12,01
  152;C;WTG_FALL0A_1;258;0;75;0,95;Wind;vdroop;DEF;28,8;0;28,8;1;0;0;1;0;1,01;0;0;1;3;1,05;0,95;-20;31,18273
  153;C;WTG_FALL0B_1;258;0;75;0,95;Wind;vdroop;DEF;28,8;0;28,8;1;0;0;1;0;1,01;0;0;1;3;1,05;0,95;-20;31,18273
  154;C;WTG_KEIH0G_1;258;0;5,555555;0,9;Wind;vdroop;DEF;1,8;0;1,8;1;0;0;1;0;1,02;0;0;1;3;1,1;0,9;-2;1,747685
  155;C;WTG_LOPA0G_1;258;0;42,22222;0,9;Wind;vdroop;DEF;15,2;0;15,2;1;0;0;1;0;1,02;0;0;1;3;1,05;0,95;-16;14,56
  156;C;WTG_NNGA6-_1;258;0;250;0,9;Wind;constq;DEF;112;0;112;1;0;0;1;0;1,01;0;0;1;3;1,1;0,9;-73,95;73,95
  157;C;WTG_NNGB6-_1;258;0;250;0,9;Wind;constq;DEF;112;0;112;1;0;0;1;0;1,01;0;0;1;3;1,1;0,9;-73,95;73,95
  158;C;WTG_POGB0G;258;0;9,72;0,99;Wind;vdroop;DEF;3,8;0;3,8;1;0;0;1;0;1;0;0;1;3;1,1;0,9;-5;3,446862
  159;C;WTG_TODD0G_1;258;0;30,66667;0,9;Wind;vdroop;DEF;11;0;11;1;0;0;1;0;1,02;0;0;1;3;1,05;0,95;-12;10,39


$$ElmLne;FID(a:40);OP(a:1);loc_name(a:80);fold_id(p);typ_id(p);dline(r);fline(r);GPScoords:MATRIX(a);nlnum(i);inAir(i)
  160;C;lne_BERW1Q_ECCL1-_1;64;;21,54;1;;1;0
  161;C;lne_BERW1Q_ECCL1-_2;64;2888;0,31;1;;1;0
  162;C;lne_BERW1R_ECCL1-_1;65;;21,54;1;;1;0
  163;C;lne_BERW1R_ECCL1-_2;65;2888;0,27;1;;1;0
  164;C;lne_BOWB31_KAIMY6_1;66;2904;5,38;1;;1;0
  165;C;lne_KAIM3-_KAIMX9_1;66;2918;11,23;1;;1;0
  166;C;lne_KAIMX9_KAIMY6_1;66;2920;4,42;1;;1;0
  167;C;lne_BOWB32_KAIMY7_1;67;2905;5,38;1;;1;0
  168;C;lne_KAIM3-_KAIMX8_1;67;2917;11,23;1;;1;0
  169;C;lne_KAIMX8_KAIMY7_1;67;2919;4,42;1;;1;0
  170;C;lne_COCK2-_SMEA2R_1;68;;9,51;1;;1;0
  171;C;lne_KAIM2-_SMEA2R_1;68;;8,78;1;;1;0
  172;C;lne_CRYR4-_TORN4-_1;69;;9,36;1;;1;0
  173;C;lne_THOB4A_TORN4-_1;69;2899;1,97;1;;1;0
  174;C;lne_DUNB1Q_INWI1A_1;70;;7,8;1;;1;0
  175;C;lne_INWI1A_INWI1Q_1;70;2892;3,7;1;;1;0
  176;C;lne_DUNB1R_INWI1B_1;71;;7,8;1;;1;0
  177;C;lne_INWI1B_INWI1R_1;71;2892;3,7;1;;1;0
  178;C;lne_DUNE1-_SMEA1-_1;72;;17,838;1;;1;0
  179;C;lne_SMEA1-SME1R;72;2891;0,13;1;;1;0
  180;C;lne_SMEA1R_SMEA1S;72;2889;0,491;1;;1;0
  181;C;lne_ECCL1-_ECCL1A_1;73;;4,19;1;;1;0
  182;C;lne_GALA1-_GALA1A_1;73;;0,3;1;;1;0
  183;C;lne_GALA1A_ECCL1A_1;73;;26,88;1;;1;0
  184;C;lne_ECCL1-_ECCL1B_1;74;;4,19;1;;1;0
  185;C;lne_GALA1-_GALA1B_1;74;;0,3;1;;1;0
  186;C;lne_GALA1B_ECCL1B_1;74;;26,45;1;;1;0
  187;C;lne_BRNX4A_TORN4-_1;75;2897;2,1;1;;2;0
  188;C;lne_ECCL4A_BRNX4A_1;75;;34,2;1;;1;0
  189;C;lne_BRNX4B_TORN4-_1;76;2897;2,1;1;;2;0
  190;C;lne_ECCL4B_BRNX4B_1;76;;34,2;1;;1;0
  191;C;lne_NNGA2-_NNGA2T_1;77;2921;12,325;1;;1;0
  192;C;lne_NNGA2G_NNGA2S_1;77;2923;1;1;;1;0
  193;C;lne_NNGA2S_NNGA2T_1;77;2922;36,572;1;;1;0
  194;C;lne_NNGB2-_NNGB2T_1;78;2921;12,3;1;;1;0
  195;C;lne_NNGB2G_NNGB2S_1;78;2923;1;1;;1;0
  196;C;lne_NNGB2S_NNGB2T_1;78;2922;36,572;1;;1;0
  197;C;lne_POOB2Q_SMEA2-_1;79;;7,79;1;;1;0
  198;C;lne_SMEA2-_YH002A_1;79;2894;0,19;1;;1;0
  199;C;lne_POOB2R_SMEA2-_1;80;;7,79;1;;1;0
  200;C;lne_SMEA2-_YH002B_1;80;2894;0,19;1;;1;0
  201;C;lne_AIKE3-_DUNB3-_1;258;2901;15;1;;1;0
  202;C;lne_AIKE3-_DUNB3-_2;258;2902;15;1;;1;0
  203;C;lne_BERW3-_ECCL3-_1;258;2903;999,99;1;;1;0
  204;C;lne_COCK2-_SMEA2-_1;258;;9,51;1;;1;0
  205;C;lne_COCK4Q_ECCL4A_1;258;;65,9;1;;1;0
  206;C;lne_COCK4R_ECCL4B_1;258;;65,89;1;;1;0
  207;C;lne_CRYR1A_WESE1-_1;258;2893;3,989;1;;1;0
  208;C;lne_CRYR3-_DUNB3-_1;258;2906;10;1;;1;0
  209;C;lne_CRYR3-_DUNB3-_2;258;2907;10;1;;1;0
  210;C;lne_CRYR3-_DUNB3-_3;258;2908;10;1;;1;0
  211;C;lne_CRYR4-_FALL4-_1;258;;13,86;1;;1;0
  212;C;lne_CRYR4-_NNGA4-_1;258;2898;0,58;1;;1;0
  213;C;lne_CRYR4-_NNGB4-_1;258;2898;0,58;1;;1;0
  214;C;lne_DEWP2Q_WHHO2Q_1;258;2909;2,48;1;;1;0
  215;C;lne_DEWP2R_WHHO2R_1;258;2909;2,55;1;;1;0
  216;C;lne_DUNB1Q_DUNB1S_1;258;2890;0,15;1;;1;0
  217;C;lne_DUNB1R_DUNB1T_1;258;2890;0,15;1;;1;0
  218;C;lne_DUNB3-_VIRD3-_1;258;2900;7,4;1;;1;0
  219;C;lne_DUNE1-_GALA1-_1;258;;23,64;1;;1;0
  220;C;lne_DUNE3-_KEIH3-_1;258;2895;4,7458;1;;1;0
  221;C;lne_DUNE3-_POGB3-_1;258;2896;3,809;1;;1;0
  222;C;lne_DUNE3-_TODD3-_1;258;2910;6,07;1;;1;0
  223;C;lne_ECCL3-_GALA3-_1;258;2911;48,15;1;;1;0
  224;C;lne_ECCL4C_STWB4Q_1;258;;7,39;1;;1;0
  225;C;lne_ECCL4D_STWB4R_1;258;;7,39;1;;1;0
  226;C;lne_FALL4-_SMEA4R_1;258;;31,1;1;;1;0
  227;C;lne_GALA1-_HAWI1B_1;258;2912;23,55;1;;1;0
  228;C;lne_GALA3-_LOPA3-_1;258;2913;10;1;;1;0
  229;C;lne_INWI1Q_TORN1-_1;258;2914;1,15;1;;1;0
  230;C;lne_INWI1R_TORN1-_1;258;2915;1,12;1;;1;0
  231;C;lne_KAIM2-_SMEA2-_1;258;;8,78;1;;1;0
  232;C;lne_KAIM2-_WHHO2Q_1;258;2916;6,455;1;;1;0
  233;C;lne_KAIM2-_WHHO2R_1;258;2916;6,297;1;;1;0
  234;C;lne_POOB2Q_SHRU2Q_1;258;2924;4,96;1;;1;0
  235;C;lne_POOB2R_SHRU2R_1;258;2925;4,96;1;;1;0


$$ElmLod;FID(a:40);OP(a:1);loc_name(a:80);fold_id(p);typ_id(p);mode_inp(a:6);slini(r);plini(r);qlini(r);coslini(r);pf_recap(i);scale0(r);i_scale(i);outserv(i);classif(a:40)
  236;C;eqLod-2;256;;DEF;695,325;695,2432;-10,67006;0,999882;1;1;1;0;
  237;C;eqLod-3;256;;DEF;695,4659;695,1616;-20,57357;0,999562;1;1;1;0;
  238;C;lod_BERW3-_1;258;2931;DEF;23,31025;23,083;-3,247;0,990250;1;1;1;0;
  239;C;lod_COCK3-_1;258;2933;DEF;32,88907;32,837;1,85;0,998416;0;1;1;0;
  240;C;lod_DEWP3-_1;258;2932;DEF;61,57813;61,462;3,78;0,998114;0;1;1;0;
  241;C;lod_DUNB3A_1;258;2932;DEF;14,45346;14,123;3,073;0,977136;0;1;1;0;
  242;C;lod_DUNB3B_1;258;2932;DEF;10,58016;10,474;-1,495;0,989966;1;1;1;0;
  243;C;lod_ECCL3-_1;258;2930;DEF;19,68988;19,499;-2,735;0,990305;1;1;1;0;
  244;C;lod_GALA3-_1;258;2929;DEF;28,43521;28,415;1,072;0,999289;0;1;1;0;
  245;C;lod_INWI0J_1;258;2928;DEF;2,059322;1,7265;1,1225;0,838382;0;1;1;0;
  246;C;lod_INWI0K_1;258;2928;DEF;2,059322;1,7265;1,1225;0,838382;0;1;1;0;
  247;C;lod_KAIM3-_1;258;2926;DEF;48,18464;48,122;2,456;0,998700;0;1;1;0;
  248;C;lod_MARM0J_1;258;2928;DEF;1,612522;1,3675;0,8545;0,848050;0;1;1;0;
  249;C;lod_MARM0K_1;258;2928;DEF;1,612522;1,3675;0,8545;0,848050;0;1;1;0;
  250;C;lod_POOB0J_1;258;2928;DEF;2,42001;2,1455;1,1195;0,886566;0;1;1;0;
  251;C;lod_POOB0K_1;258;2928;DEF;2,42001;2,1455;1,1195;0,886566;0;1;1;0;
  252;C;lod_POOB3-_1;258;2929;DEF;84,01085;84;1,35;0,999870;0;1;1;0;
  253;C;lod_SHRU3A_1;258;2932;DEF;29,38783;29,344;1,6045;0,998508;0;1;1;0;
  254;C;lod_SHRU3B_1;258;2932;DEF;29,38783;29,344;1,6045;0,998508;0;1;1;0;
  255;C;lod_WHHO3-_1;258;2927;DEF;56,72613;56,706;1,511;0,999645;0;1;1;0;


$$ElmNet;FID(a:40);OP(a:1);loc_name(a:80);fold_id(p);frnom(r);pDiagram(p)
  256;C;NGET;;50;
  257;C;SHET;;50;
  258;C;SPTL;;50;


$$ElmScap;FID(a:40);OP(a:1);loc_name(a:80);fold_id(p);ucn(r);outserv(i);xcap(r);Curn(r);for_name(a:100)
  259;C;sc_ECCL4A_ECCL4C_1;258;400;0;9,2;4;
  260;C;sc_ECCL4B_ECCL4D_1;258;400;0;9,2;4;


$$ElmShnt;FID(a:40);OP(a:1);loc_name(a:80);fold_id(p);systp(i);ctech(i);shtype(i);ushnm(r);mode_inp(a:6);qcapn(r);ncapx(i);ncapa(i);outserv(i);qrean(r);qtotn(r);tandc(r);fres(r);greaf0(r);grea(r);bcap(r);xrea(r);rrea(r);gparac(r);iswitch(i);imldc(a:2);usetp_mx(r);usetp_mn(r);qsetp_mx(r);qsetp_mn(r);iQorient(i);ilcph(i);chr_name(a:40);rpara(r);i_cont(i)
  261;C;shnt_COCK2-_MSC1;258;0;2;4;275;LAY;204,8967;1;0;0;1823,65;230,8319;0;149,1672;1237,164;414,6902;2709,378;41,46902;0,1;0;1;V;1,025;0,99;0;0;0;0;MSCDN;170;0
  262;C;shnt_CRYR3V_R2;258;0;1;1;33;DEF;0;2;0;0;30;30;0;0;0;375,7;26666,67;36,3;0,096619;0;1;V;1,025;0,99;0;0;0;0;REACTOR;0;0
  263;C;shnt_DEWP3-_R1;258;0;1;1;33;DEF;0;1;0;0;60;60;0;0;0;250;26666,66;18,15;0,0726;0;0;V;1,05;0,95;0;0;0;0;REACTOR;0;0
  264;C;shnt_DEWP3-_R2;258;0;1;1;33;DEF;0;1;0;0;60;60;0;0;0;258,6;26666,66;18,15;0,070185;0;0;V;1,05;0,95;0;0;0;0;REACTOR;0;0
  265;C;shnt_ECCL3V_R1;258;0;1;1;33;DEF;0;1;0;0;60;60;0;0;0;381;26666,67;18,15;0,047637;0;1;V;1,025;0,99;0;0;0;0;;0;0
  266;C;shnt_NNGA2-_F1;258;0;1;4;220;DES;46,875;1;1;0;749,9999;50;0;200;400;100;968,4917;64,53334;0,645333;0;0;V;1,05;0,95;0;0;0;0;;520;0
  267;C;shnt_NNGA2-_R1;258;0;2;1;220;DEF;0;1;1;0;145;145;0;0;0;750;19,83471;333,7931;0,445057;0;0;V;1,05;0,95;0;0;0;0;;0;0
  268;C;shnt_NNGA4-_F1;258;0;1;4;400;DES;24,32814;1;1;0;905,25;25;0;305;610;100;152,0509;176,7467;1,767467;0;0;V;1,05;0,95;0;0;0;0;;2150;0
  269;C;shnt_NNGB2-_F2;258;0;1;4;220;DES;46,875;1;1;0;749,9999;50;0;200;400;100;968,4917;64,53334;0,645333;0;0;V;1,05;0,95;0;0;0;0;;520;0
  270;C;shnt_NNGB2-_R2;258;0;2;1;220;DEF;0;1;1;0;145;145;0;0;0;750;19,83471;333,7931;0,445057;0;0;V;1,05;0,95;0;0;0;0;;0;0
  271;C;shnt_NNGB4-_F2;258;0;1;4;400;DES;24,32814;1;1;0;905,25;25;0;305;610;100;152,0509;176,7467;1,767467;0;0;V;1,05;0,95;0;0;0;0;;2150;0
  272;C;shnt_SMEA3U_R1;258;0;1;1;33;DEF;0;1;0;0;60;60;0;0;0;385;26666,67;18,15;0,047142;0;1;V;1,025;0,99;0;0;0;0;;0;0
  273;C;shnt_SMEA3V_R2;258;0;1;1;33;DEF;0;1;0;0;60;60;0;0;0;376;26666,67;18,15;0,048271;0;1;V;1,025;0,99;0;0;0;0;;0;0
  274;C;shnt_TORN4-;258;0;2;2;400;DEF;9;1;1;0;0;9;0;0;0;0;56,25;6666,667;0;0;0;V;1,05;0,95;0;0;0;0;;0;0
  275;C;shnt_TORN4-_R1;258;0;2;1;400;DEF;0;1;1;0;150;150;0;0;0;687,7;26666,66;1066,667;1,551064;0;0;V;1,05;0,95;0;0;0;0;REACTOR;0;0
  276;C;shnt_TORN4-_R2;258;0;2;1;400;DEF;0;1;1;0;150;150;0;0;0;415,743;26666,66;1066,667;2,565687;0;0;V;1,05;0,95;0;0;0;0;REACTOR;0;0


$$ElmSind;FID(a:40);OP(a:1);loc_name(a:80);fold_id(p);ucn(r);Sn(r);uk(r);Pcu(r);outserv(i)
  277;C;sr_KAIM3-_KAIM3A_1;258;33;120;16,26574;89,9438;0
  278;C;sr_KAIM3-_KAIM3B_1;258;33;120;16,26023;89,91736;0


$$ElmSvs;FID(a:40);OP(a:1);loc_name(a:80);fold_id(p);qmax(r);tcrmax(r);nxcap(i);qmin(r);nfixcap(i);Qfixcap(r);outserv(i);i_ctrl(i);i_droop(i);tcrqact(r);nncap(i);usetp(r);Srated(r);ddroop(r);qsetp(r)
  279;C;SVS_BOWB0A;258;3;3;132;-0,09;0;0;0;1;0;0;0;1;0;0;0
  280;C;SVS_BOWB0B;258;3;3;132;-0,09;0;0;0;1;0;0;0;1;0;0;0
  281;C;SVS_NNGA3U;258;169;169;1;-99;0;0;0;1;1;0;0;1,01;80;3;0
  282;C;SVS_NNGB3U;258;169;169;1;-99;0;0;0;1;1;0;0;1,01;80;3;0


$$ElmSym;FID(a:40);OP(a:1);loc_name(a:80);fold_id(p);typ_id(p);cCategory(a);ngnum(i);i_mot(i);pgini(r);qgini(r);cosgini(r);usetp(r);pf_recap(i);q_min(r);q_max(r);outserv(i);av_mode(a);phtech(i);ip_ctrl(i)
  283;C;sym_TORN01_1;258;2934;Nuclear;1;0;531,2;0;1;1;0;-0,223325;0,527295;0;constv;1;1
  284;C;sym_TORN02_2;258;2934;Nuclear;1;0;531,2;0;1;1;0;-0,223325;0,527295;0;constv;1;0
  285;C;sym_VIRD0G_1;258;2935;Others;1;0;26,3;0;1;1;0;-0,3124;0,3124;0;constv;1;0


$$ElmTerm;FID(a:40);OP(a:1);loc_name(a:80);fold_id(p);typ_id(p);systype(i);iUsage(i);uknom(r);unknom(r);iminus(i);outserv(i);GPSlat(r);GPSlon(r);vtarget(r)
  286;C;AIKE0A;258;;0;0;0,69;0,398371;0;0;0;0;1
  287;C;AIKE0B;258;;0;0;0,69;0,398371;0;0;0;0;1
  288;C;AIKE0G;258;;0;0;1;0,577350;0;0;0;0;1
  289;C;AIKE3-;258;;0;0;33;19,05256;0;0;0;0;1
  290;C;AIKE3A;258;;0;0;33;19,05256;0;0;0;0;1
  291;C;AIKE3B;258;;0;0;33;19,05256;0;0;0;0;1
  292;C;BERW1Q;258;;0;0;132;76,21024;0;0;0;0;1
  293;C;BERW1R;258;;0;0;132;76,21024;0;0;0;0;1
  294;C;BERW3-;258;;0;0;33;19,05256;0;0;0;0;1
  295;C;BOWB0A;258;;0;0;0,69;0,398371;0;0;0;0;1
  296;C;BOWB0B;258;;0;0;0,69;0,398371;0;0;0;0;1
  297;C;BOWB31;258;;0;0;33;19,05256;0;0;0;0;1
  298;C;BOWB32;258;;0;0;33;19,05256;0;0;0;0;1
  299;C;COCK2-;258;;0;0;275;158,7713;0;0;0;0;1
  300;C;COCK3-;258;;0;0;33;19,05256;0;0;0;0;1
  301;C;COCK3U;258;;0;0;33;19,05256;0;0;0;0;1
  302;C;COCK3V;258;;0;0;33;19,05256;0;0;0;0;1
  303;C;COCK4Q;258;;0;0;400;230,9401;0;0;0;0;1
  304;C;COCK4R;258;;0;0;400;230,9401;0;0;0;0;1
  305;C;CRYR01;258;;0;0;0,69;0,398371;0;0;0;0;1
  306;C;CRYR02;258;;0;0;0,69;0,398371;0;0;0;0;1
  307;C;CRYR0G;258;;0;0;0,66;0,381051;0;0;0;0;1
  308;C;CRYR1-;258;;0;0;132;76,21024;0;0;0;0;1
  309;C;CRYR1A;258;;0;0;132;76,21024;0;0;0;0;1
  310;C;CRYR3-;258;;0;0;33;19,05256;0;0;0;0;1
  311;C;CRYR31;258;;0;0;33;19,05256;0;0;0;0;1
  312;C;CRYR32;258;;0;0;33;19,05256;0;0;0;0;1
  313;C;CRYR3U;258;;0;0;33;19,05256;0;0;0;0;1
  314;C;CRYR3V;258;;0;0;33;19,05256;0;0;0;0;1
  315;C;CRYR4-;258;;0;0;400;230,9401;0;0;0;0;1
  316;C;DEWP2Q;258;;0;0;275;158,7713;0;0;0;0;1
  317;C;DEWP2R;258;;0;0;275;158,7713;0;0;0;0;1
  318;C;DEWP3-;258;;0;0;33;19,05256;0;0;0;0;1
  319;C;DUNB1Q;258;;0;0;132;76,21024;0;0;0;0;1
  320;C;DUNB1R;258;;0;0;132;76,21024;0;0;0;0;1
  321;C;DUNB1S;258;;0;0;132;76,21024;0;0;0;0;1
  322;C;DUNB1T;258;;0;0;132;76,21024;0;0;0;0;1
  323;C;DUNB3A;258;;0;0;33;19,05256;0;0;0;0;1
  324;C;DUNB3B;258;;0;0;33;19,05256;0;0;0;0;1
  325;C;DUNE0G;258;;0;0;0,69;0,398371;0;0;0;0;1
  326;C;DUNE1-;258;;0;0;132;76,21024;0;0;0;0;1
  327;C;DUNE3-;258;;0;0;33;19,05256;0;0;0;0;1
  328;C;ECCL1-;258;;0;0;132;76,21024;0;0;0;0;1
  329;C;ECCL3-;258;;0;0;33;19,05256;0;0;0;0;1
  330;C;ECCL3U;258;;0;0;33;19,05256;0;0;0;0;1
  331;C;ECCL3V;258;;0;0;33;19,05256;0;0;0;0;1
  332;C;ECCL4A;258;;0;0;400;230,9401;0;0;0;0;1
  333;C;ECCL4B;258;;0;0;400;230,9401;0;0;0;0;1
  334;C;ECCL4C;258;;0;1;400;230,9401;0;0;0;0;1
  335;C;ECCL4D;258;;0;1;400;230,9401;0;0;0;0;1
  336;C;FALL0A;258;;0;0;0,69;0,398371;0;0;0;0;1
  337;C;FALL0B;258;;0;0;0,69;0,398371;0;0;0;0;1
  338;C;FALL3A;258;;0;0;33;19,05256;0;0;0;0;1
  339;C;FALL3B;258;;0;0;33;19,05256;0;0;0;0;1
  340;C;FALL4-;258;;0;0;400;230,9401;0;0;0;0;1
  341;C;GALA1-;258;;0;0;132;76,21024;0;0;0;0;1
  342;C;GALA3-;258;;0;0;33;19,05256;0;0;0;0;1
  343;C;HAWI1B;258;;0;0;132;76,21024;0;0;0;0;1
  344;C;INWI0J;258;;0;0;25;14,43376;0;0;0;0;1
  345;C;INWI0K;258;;0;0;25;14,43376;0;0;0;0;1
  346;C;INWI1Q;258;;0;0;132;76,21024;0;0;0;0;1
  347;C;INWI1R;258;;0;0;132;76,21024;0;0;0;0;1
  348;C;KAIM2-;258;;0;0;275;158,7713;0;0;0;0;1
  349;C;KAIM3-;258;;0;0;33;19,05256;0;0;0;0;1
  350;C;KAIM3A;258;;0;1;33;19,05256;0;0;0;0;1
  351;C;KAIM3B;258;;0;1;33;19,05256;0;0;0;0;1
  352;C;KEIH0G;258;;0;0;0,69;0,398371;0;0;0;0;1
  353;C;KEIH3-;258;;0;0;33;19,05256;0;0;0;0;1
  354;C;LOPA0G;258;;0;0;0,69;0,398371;0;0;0;0;1
  355;C;LOPA3-;258;;0;0;33;19,05256;0;0;0;0;1
  356;C;MARM0J;258;;0;0;25;14,43376;0;0;0;0;1
  357;C;MARM0K;258;;0;0;25;14,43376;0;0;0;0;1
  358;C;NNGA2-;258;;0;0;220;127,0171;0;0;0;0;1
  359;C;NNGA2G;258;;0;1;220;127,0171;0;0;0;0;1
  360;C;NNGA3U;258;;0;0;33;19,05256;0;0;0;0;1
  361;C;NNGA4-;258;;0;0;400;230,9401;0;0;0;0;1
  362;C;NNGA6-;258;;0;0;66;38,10512;0;0;0;0;1
  363;C;NNGB2-;258;;0;0;220;127,0171;0;0;0;0;1
  364;C;NNGB2G;258;;0;1;220;127,0171;0;0;0;0;1
  365;C;NNGB3U;258;;0;0;33;19,05256;0;0;0;0;1
  366;C;NNGB4-;258;;0;0;400;230,9401;0;0;0;0;1
  367;C;NNGB6-;258;;0;0;66;38,10512;0;0;0;0;1
  368;C;POGB0G;258;;0;0;0,69;0,398371;0;0;0;0;1
  369;C;POGB3-;258;;0;0;33;19,05256;0;0;0;0;1
  370;C;POOB0J;258;;0;0;25;14,43376;0;0;0;0;1
  371;C;POOB0K;258;;0;0;25;14,43376;0;0;0;0;1
  372;C;POOB2Q;258;;0;0;275;158,7713;0;0;0;0;1
  373;C;POOB2R;258;;0;0;275;158,7713;0;0;0;0;1
  374;C;POOB3-;258;;0;0;33;19,05256;0;0;0;0;1
  375;C;SHRU2Q;258;;0;0;275;158,7713;0;0;0;0;1
  376;C;SHRU2R;258;;0;0;275;158,7713;0;0;0;0;1
  377;C;SHRU3A;258;;0;0;33;19,05256;0;0;0;0;1
  378;C;SHRU3B;258;;0;0;33;19,05256;0;0;0;0;1
  379;C;SMEA1-;258;;0;0;132;76,21024;0;0;0;0;1
  380;C;SMEA2-;258;;0;0;275;158,7713;0;0;0;0;1
  381;C;SMEA3U;258;;0;0;33;19,05256;0;0;0;0;1
  382;C;SMEA3V;258;;0;0;33;19,05256;0;0;0;0;1
  383;C;SMEA4R;258;;0;0;400;230,9401;0;0;0;0;1
  384;C;STWB4Q;258;;0;0;400;230,9401;0;0;0;0;1
  385;C;STWB4R;258;;0;0;400;230,9401;0;0;0;0;1
  386;C;TODD0G;258;;0;0;0,69;0,398371;0;0;0;0;1
  387;C;TODD3-;258;;0;0;33;19,05256;0;0;0;0;1
  388;C;TORN01;258;;0;0;23,5;13,56773;0;0;0;0;1
  389;C;TORN02;258;;0;0;23,5;13,56773;0;0;0;0;1
  390;C;TORN1-;258;;0;0;132;76,21024;0;0;0;0;1
  391;C;TORN3U;258;;0;0;33;19,05256;0;0;0;0;1
  392;C;TORN3V;258;;0;0;33;19,05256;0;0;0;0;1
  393;C;TORN4-;258;;0;0;400;230,9401;0;0;0;0;1
  394;C;VIRD0G;258;;0;0;11;6,350853;0;0;0;0;1
  395;C;VIRD3-;258;;0;0;33;19,05256;0;0;0;0;1
  396;C;WESE1-;258;;0;0;132;76,21024;0;0;0;0;1
  397;C;WHHO2Q;258;;0;0;275;158,7713;0;0;0;0;1
  398;C;WHHO2R;258;;0;0;275;158,7713;0;0;0;0;1
  399;C;WHHO3-;258;;0;0;33;19,05256;0;0;0;0;1
  400;C;BL001;64;;0;1;132;76,21024;0;0;0;0;1
  401;C;BL001;65;;0;1;132;76,21024;0;0;0;0;1
  402;C;KAIMX9;66;;0;0;33;19,05256;0;0;0;0;1
  403;C;KAIMY6;66;;0;0;33;19,05256;0;0;0;0;1
  404;C;KAIMX8;67;;0;0;33;19,05256;0;0;0;0;1
  405;C;KAIMY7;67;;0;0;33;19,05256;0;0;0;0;1
  406;C;SMEA2R;68;;0;1;275;158,7713;0;0;0;0;1
  407;C;THOB4A;69;;0;1;400;230,9401;0;0;0;0;1
  408;C;INWI1A;70;;0;1;132;76,21024;0;0;0;0;1
  409;C;INWI1B;71;;0;1;132;76,21024;0;0;0;0;1
  410;C;SMEA1R;72;;0;1;132;76,21024;0;0;0;0;1
  411;C;SMEA1S;72;;0;1;132;76,21024;0;0;0;0;1
  412;C;ECCL1A;73;;0;2;132;76,21024;0;0;0;0;1
  413;C;GALA1A;73;;0;2;132;76,21024;0;0;0;0;1
  414;C;ECCL1B;74;;0;2;132;76,21024;0;0;0;0;1
  415;C;GALA1B;74;;0;2;132;76,21024;0;0;0;0;1
  416;C;BRNX4A;75;;0;0;400;230,9401;0;0;0;0;1
  417;C;BRNX4B;76;;0;0;400;230,9401;0;0;0;0;1
  418;C;NNGA2S;77;;0;1;220;127,0171;0;0;0;0;1
  419;C;NNGA2T;77;;0;1;220;127,0171;0;0;0;0;1
  420;C;NNGB2S;78;;0;1;220;127,0171;0;0;0;0;1
  421;C;NNGB2T;78;;0;1;220;127,0171;0;0;0;0;1
  422;C;YH002A;79;;0;2;275;158,7713;0;0;0;0;1
  423;C;YH002B;80;;0;2;275;158,7713;0;0;0;0;1


$$ElmTow;FID(a:40);OP(a:1);loc_name(a:80);fold_id(p);outserv(i);i_dist(i);ngeo(i);pGeo:SIZEROW(i);pGeo:0(p);plines:SIZEROW(i);plines:0(p);plines:1(p);dpolar:SIZEROW(i);dpolar:0(r);dpolar:1(r);pCon_e:SIZEROW(i);pCon_e:0(p);sag_c:SIZEROW(i);sag_c:0(r);sag_c:1(r);ctransp:SIZEROW(i);ctransp:0(r);ctransp:1(r);pCon_c:SIZEROW(i);pCon_c:0(p);pCon_c:1(p)
  424;C;lc_BERW1-_ECCL1-_1;258;0;1;1;1;2938;2;160;162;2;0;0;1;;2;0;0;2;0;0;2;;
  425;C;lc_COCK2-_KAIM2-_1;258;0;1;1;1;2944;2;170;204;2;0;0;1;;2;0;0;2;0;0;2;;
  426;C;lc_COCK4-_ECCL4-_1;258;0;1;1;1;2947;2;205;206;2;0;0;1;;2;0;0;2;0;0;2;;
  427;C;lc_CRYR4-_FALL4-_1;258;0;1;1;1;2946;2;211;;2;0;0;1;;2;0;0;2;0;0;2;;
  428;C;lc_CRYR4-_TORN4-_1;258;0;1;1;1;2946;2;;172;2;0;0;1;;2;0;0;2;0;0;2;;
  429;C;lc_DUNB1-_INWI1-_1;258;0;1;1;1;2936;2;174;176;2;0;0;1;;2;0;0;2;0;0;2;;
  430;C;lc_DUNE1-_GALA1-_1;258;0;1;1;1;2941;1;219;;1;0;;1;;1;0;;1;0;;1;;
  431;C;lc_DUNE1-_SMEA1-_1;258;0;1;1;1;2942;1;178;;1;0;;1;;1;0;;1;0;;1;;
  432;C;lc_ECCL1-_ECCL1A_1;258;0;0;1;1;2937;2;181;184;2;0;0;1;;2;0;0;2;0;0;2;;
  433;C;lc_ECCL4-_STWB4-_1;258;0;1;1;1;2948;2;224;225;2;0;0;1;;2;0;0;2;0;0;2;;
  434;C;lc_ECCL4-_TORN4-_1;258;0;1;1;1;2945;2;188;190;2;0;0;1;;2;0;0;2;0;0;2;;
  435;C;lc_FALL4-_SMEA4-_1;258;0;1;1;1;2946;2;226;;2;0;0;1;;2;0;0;2;0;0;2;;
  436;C;lc_GALA1-_GALA1A_1;258;0;0;1;1;2940;2;182;185;2;0;0;1;;2;0;0;2;0;0;2;;
  437;C;lc_GALA1A_ECCL1A_1;258;0;1;1;1;2939;1;186;;1;0;;1;;1;0;;1;0;;1;;
  438;C;lc_GALA1B_ECCL1B_1;258;0;1;1;1;2941;1;183;;1;0;;1;;1;0;;1;0;;1;;
  439;C;lc_KAIM2-_SMEA2-_1;258;0;1;1;1;2944;2;171;231;2;0;0;1;;2;0;0;2;0;0;2;;
  440;C;lc_POOB2-_SMEA2-_1;258;0;1;1;1;2943;2;197;199;2;0;0;1;;2;0;0;2;0;0;2;;


$$ElmTr2;FID(a:40);OP(a:1);loc_name(a:80);fold_id(p);typ_id(p);ntnum(i);outserv(i);nntap(i);i_auto(i);ntrcn(i);usetp(r);usp_low(r);usp_up(r);t2ldc(i)
  441;C;trf_AIKE3-_AIKE0G_1;258;2975;1;0;0;0;0;1;0,98125;1,01875;1
  442;C;trf_AIKE3A_AIKE0A_1;258;2976;1;0;0;0;0;1;0,99;1,01;0
  443;C;trf_AIKE3B_AIKE0B_1;258;2977;1;0;0;0;0;1;0,99;1,01;0
  444;C;trf_BERW1Q_BERW3-_1;258;2951;1;0;0;0;1;1,01;1;1,025;1
  445;C;trf_BERW1Q_MARM0J_1;258;MARM132TRXT1 3P;1;0;0;0;0;1;0,99583;1,00417;1
  446;C;trf_BERW1R_BERW3-_1;258;2952;1;0;0;0;1;1,01;1;1,025;1
  447;C;trf_BERW1R_MARM0K_1;258;MARM132TRXT2 3P;1;0;0;0;0;1;0,99583;1,00417;1
  448;C;trf_BOWB31_BOWB0A_1;258;2978;1;0;0;0;0;1;0,98125;1,01875;1
  449;C;trf_BOWB32_BOWB0B_1;258;2979;1;0;0;0;0;1;0,98125;1,01875;1
  450;C;trf_COCK2-_COCK3-_1;258;COCK275TRXSGT1 Tr2;1;0;0;0;1;1,01;1;1,025;1
  451;C;trf_COCK2-_COCK3-_2;258;2959;1;0;0;0;1;1,01;1;1,025;1
  452;C;trf_CRYR1-_CRYR31_1;258;2953;1;0;0;0;1;1,01;1;1,025;1
  453;C;trf_CRYR1-_CRYR32_1;258;2953;1;0;0;0;1;1,01;1;1,025;1
  454;C;trf_CRYR3-_CRYR0G_1;258;2980;1;0;0;0;0;1;0,98125;1,01875;1
  455;C;trf_CRYR31_CRYR01_1;258;2981;1;0;0;0;0;1;0,98125;1,01875;1
  456;C;trf_CRYR32_CRYR02_1;258;2981;1;0;0;0;0;1;0,98125;1,01875;1
  457;C;trf_DEWP2Q_DEWP3-_1;258;2960;1;0;0;0;1;1,01;1;1,025;1
  458;C;trf_DEWP2R_DEWP3-_1;258;2961;1;0;0;0;1;1,01;1;1,025;1
  459;C;trf_DUNB1Q_DUNB3-_1;258;DUNB132TRXT1 Tr2;1;0;0;0;1;1,01;1;1,025;1
  460;C;trf_DUNB1R_DUNB3-_1;258;DUNB132TRXT2 Tr2;1;0;0;0;1;1,01;1;1,025;1
  461;C;trf_DUNB1S_DUNB3B_2;258;2949;1;0;0;0;1;1,01;1;1,025;1
  462;C;trf_DUNB1T_DUNB3B_1;258;2950;1;0;0;0;1;1,01;1;1,025;1
  463;C;trf_DUNE1-_DUNE3-_1;258;2954;1;0;0;0;1;1,01;1;1,025;1
  464;C;trf_DUNE1-_DUNE3-_2;258;2955;1;0;0;0;1;1,01;1;1,025;1
  465;C;trf_DUNE3-_DUNE0G_1;258;2974;35;0;0;0;0;1;0,98125;1,01875;1
  466;C;trf_ECCL1-_ECCL3-_1;258;ECCL132TRXT1 Tr2;1;0;0;0;1;1,01;1;1,025;1
  467;C;trf_ECCL1-_ECCL3-_2;258;ECCL132TRXT2 Tr2;1;0;0;0;1;1,01;1;1,025;1
  468;C;trf_FALL3A_FALL0A_1;258;2982;1;0;0;0;0;1;0,98125;1,01875;1
  469;C;trf_FALL3B_FALL0B_1;258;2982;1;0;0;0;0;1;0,98125;1,01875;1
  470;C;trf_FALL4-_FALL3A_1;258;2966;1;0;0;0;1;1,01;1;1,025;1
  471;C;trf_FALL4-_FALL3B_1;258;2967;1;0;0;0;1;1,01;1;1,025;1
  472;C;trf_GALA1-_GALA3-_1;258;2956;1;0;0;0;1;1,01;1;1,025;1
  473;C;trf_GALA1-_GALA3-_2;258;2957;1;0;0;0;1;1,01;1;1,025;1
  474;C;trf_INWI1Q_INWI0J_1;258;INWI132TRXT1 3P;1;0;0;0;0;1;0,99;1,01;1
  475;C;trf_INWI1R_INWI0K_1;258;INWI132TRXT2 3P;1;0;0;0;0;1;0,99;1,01;1
  476;C;trf_KAIM2-_KAIM3A_1;258;KAIM275TRXSGT1 Tr2;1;0;0;0;1;1,01;1;1,025;1
  477;C;trf_KAIM2-_KAIM3B_1;258;KAIM275TRXSGT2 Tr2;1;0;0;0;1;1,01;1;1,025;1
  478;C;trf_KEIH3-_KEIH0G_1;258;2972;1;0;0;0;0;1;0,99;1,01;0
  479;C;trf_LOPA3-_LOPA0G_1;258;2983;1;0;0;0;0;1;0,98125;1,01875;1
  480;C;trf_NNGA2G_NNGA6-_1;258;2971;1;0;0;0;1;1,01;0,99;1,02;1
  481;C;trf_NNGB2G_NNGB6-_1;258;2971;1;0;0;0;1;1,01;0,99;1,02;1
  482;C;trf_POGB3-_POGB0G_1;258;2973;1;0;0;0;0;1;0,99;1,01;0
  483;C;trf_POOB2Q_POOB0J_1;258;POOB25TRXSGT1B 3P;1;0;0;0;0;1;0,99;1,01;1
  484;C;trf_POOB2Q_POOB3-_1;258;2962;1;0;0;0;1;1,01;1;1,025;1
  485;C;trf_POOB2R_POOB0K_1;258;POOB25TRXSGT2B 3P;1;0;0;0;0;1;0,99;1,01;1
  486;C;trf_POOB2R_POOB3-_1;258;2963;1;0;0;0;1;1,01;1;1,025;1
  487;C;trf_SHRU2R_SHRU3-_1;258;2964;1;0;0;0;1;1,01;1;1,025;1
  488;C;trf_TODD3-_TODD0G_1;258;2984;1;0;0;0;0;1;0,98125;1,01875;1
  489;C;trf_TORN4-_TORN01_1;258;2969;1;0;0;0;1;1;0,991;1,009;1
  490;C;trf_TORN4-_TORN02_1;258;2970;1;0;0;0;1;1;0,991;1,009;1
  491;C;trf_VIRD3-_VIRD0G_1;258;2968;1;0;0;0;0;1;0,98125;1,01875;1
  492;C;trf_WESE1-_AIKE3A_1;258;2958;1;0;0;0;1;1,01;1;1,025;1
  493;C;trf_WESE1-_AIKE3B_1;258;2958;1;0;0;0;1;1,01;1;1,025;1
  494;C;trf_WHHO2Q_WHHO3-_1;258;2965;1;0;0;0;1;1,01;1;1,025;1
  495;C;trf_WHHO2R_WHHO3-_1;258;WHHO275TRXSGT2 Tr2;1;0;0;0;1;1,01;1;1,025;1


$$ElmTr3;FID(a:40);OP(a:1);loc_name(a:80);fold_id(p);nt3nm(i);typ_id(p);outserv(i);n3tap_h(i);n3tap_m(i);n3tap_l(i);i_auto_hl(i);ictrlside(i);ntrcn(i);t3ldc(i);usetp(r);usp_low(r);usp_up(r);chr_name(a:40);for_name(a:100);mTaps:SIZEROW(i);mTaps:SIZECOL(i);iMeasTap(i)
  496;C;tr3_COCK4Q_COCK2-_1;258;1;COCK400TRXSGT3 Tr3;0;0;0;0;0;0;0;0;1;0,99;1,01;F190;;1;0;0
  497;C;tr3_COCK4R_COCK2-_1;258;1;COCK400TRXSGT4 Tr3;0;0;0;0;0;0;0;0;1;0,99;1,01;F141;;1;0;0
  498;C;tr3_CRYR4-_CRYR1-_1;258;1;2987;0;0;9;0;0;1;1;1;1,01;1;1,025;S11R;;1;0;0
  499;C;tr3_CRYR4-_CRYR1A_1;258;1;2988;0;0;13;0;0;1;1;1;1,01;1;1,025;S11S;;1;0;0
  500;C;tr3_ECCL4A_ECCL1-_1;258;1;ECCL400TRXSGT1 Tr3;0;0;11;0;0;1;1;1;1,01;1;1,025;S101;;1;0;0
  501;C;tr3_ECCL4B_ECCL1-_1;258;1;ECCL400TRXSGT2 Tr3;0;0;11;0;0;1;1;1;1,01;1;1,025;S102;;1;0;0
  502;C;tr3_NNGA4-_NNGA2-_1;258;1;2989;0;0;11;0;0;1;1;1;1;0,99;1,01;;;1;0;0
  503;C;tr3_NNGB4-_NNGB2-_1;258;1;2989;0;0;11;0;0;1;1;1;1;0,99;1,01;;;1;0;0
  504;C;tr3_SHRU2Q_SHRU3-_1;258;1;2986;0;0;0;0;0;0;1;1;1,01;1;1,025;T152;;1;0;0
  505;C;tr3_SMEA2-_SMEA1-_1;258;1;2985;0;0;11;0;0;1;1;1;1,01;1;1,025;S10B;;1;0;0
  506;C;tr3_SMEA4R_SMEA2-_1;258;1;SMEA400TRXSGT2 Tr3;0;0;0;0;0;0;0;0;1;0,99;1,01;F158;;1;0;0
  507;C;tr3_TORN4-_TORN1-_1;258;1;TORN400TRXSGT2 Tr3;0;0;12;0;0;1;1;1;1,01;1;1,025;S129;;1;0;0
  508;C;tr3_TORN4-_TORN1-_2;258;1;TORN400TRXSGT1 Tr3;0;0;12;0;0;1;1;1;1,01;1;1,025;S128;;1;0;0


$$ElmVac;FID(a:40);OP(a:1);loc_name(a:80);fold_id(p);outserv(i);usetp(r);Kpf(r);for_name(a:100);itype(i);Pload(r);Qload(r);Pgen(r);Qgen(r);Pzload(r);Qzload(r)
  509;C;eqVac-2;256;0;1;0;;2;0;0;0;0;0;0
  510;C;eqVac-3;256;0;1;0;;2;0;0;0;0;0;0


$$ElmZone;FID(a:40);OP(a:1);loc_name(a:80);fold_id(p);icolor(i);curscale(r)
  511;C;S6;;1;1
  512;C;SB6;;1;1


$$IntFolder;FID(a:40);OP(a:1);loc_name(a:80);fold_id(p)
  513;C;Layers;2068
  514;C;Settings;2068
  515;C;Layers;2069
  516;C;Settings;2069
  517;C;Embedded Generation;258
  518;C;132kV;522
  519;C;275kV;522
  520;C;400kV;522
  521;C;Earthwire;522
  522;C;Conductors;523
  523;C;SPTL;
  524;C;Generators;523
  525;C;132kV;528
  526;C;275kV;528
  527;C;400kV;528
  528;C;Towers;523
  529;C;TypLne;537
  530;C;Line Types;538
  531;C;Line Types;539
  532;C;TypLne;540
  533;C;TypLne;541
  534;C;Line Types;535
  535;C;400kV;542
  536;C;Lines;523
  537;C;ABB XLPE;538
  538;C;132kV;542
  539;C;275kV;542
  540;C;ABB XLPE;543
  541;C;SPEN XLPE;543
  542;C;Cables;523
  543;C;33kV;542
  544;C;Wind Generators;523
  545;C;Load Models;523
  546;C;132/33kV;551
  547;C;275/33kV;551
  548;C;400/33kV;551
  549;C;Generator Transformers;551
  550;C;3-Phase Representation;553
  551;C;Transformers;523
  552;C;Wind Generator Transformers;551
  553;C;Traction Transformers;551
  554;C;3-Winding Model;557
  555;C;400/132kV;551
  556;C;400/275kV;551
  557;C;275/132kV;551


$$IntGrf;FID(a:40);OP(a:1);loc_name(a:80);fold_id(p);iCol(i);iVis(i);iLevel(i);rCenterX(r);rCenterY(r);sSymNam(a:80);pDataObj(p);iRot(i);rSizeX(r);rSizeY(r)
  558;C;AIKE0A_Graph;2068;1;1;1;831,25;673,75;TermStrip;286;0;0,666666;1
  559;C;AIKE0B_Graph;2068;1;1;1;770;717,5;TermStrip;287;0;0,666666;1
  560;C;AIKE0G_Graph;2068;1;1;1;262,5;752,5;TermStrip;288;0;0,666666;1
  561;C;AIKE3-_Graph;2068;1;1;1;240,625;735;TermStrip;289;0;1,666667;1
  562;C;AIKE3A_Graph;2068;1;1;1;809,375;682,5;TermStrip;290;0;1;1
  563;C;AIKE3B_Graph;2068;1;1;1;787,5;700;TermStrip;291;0;1;1
  564;C;BERW1Q_Graph;2068;1;1;1;280;249,375;TermStrip;292;0;1;1
  565;C;BERW1R_Graph;2068;1;1;1;271,25;266,875;TermStrip;293;0;1;1
  566;C;BERW3-_Graph;2068;1;1;1;262,5;227,5;TermStrip;294;0;3;1
  567;C;BOWB0A_Graph;2068;-16777216;1;1;656,25;695,625;TermStrip;295;0;1;1
  568;C;BOWB0B_Graph;2068;1;1;1;612,5;700;TermStrip;296;0;1;1
  569;C;BOWB31_Graph;2068;1;1;1;643,125;643,125;TermStrip;297;0;0,666666;1
  570;C;BOWB32_Graph;2068;1;1;1;616,875;643,125;TermStrip;298;0;0,666666;1
  571;C;COCK2-_Graph;2068;1;1;1;546,875;328,125;TermStrip;299;0;2,333333;1
  572;C;COCK3-_Graph;2068;1;1;1;551,25;293,125;TermStrip;300;0;2,666667;1
  573;C;COCK3U_Graph;2068;1;1;1;511,875;336,875;TermStrip;301;0;0,666666;1
  574;C;COCK3V_Graph;2068;1;1;1;507,5;310,625;TermStrip;302;0;0,666666;1
  575;C;COCK4Q_Graph;2068;1;1;1;481,25;350;TermStrip;303;0;0,666666;1
  576;C;COCK4R_Graph;2068;1;1;1;476,875;332,5;TermStrip;304;0;0,666666;1
  577;C;CRYR01_Graph;2068;1;1;1;892,5;634,375;TermStrip;305;0;0,666666;1
  578;C;CRYR02_Graph;2068;1;1;1;879,375;577,5;TermStrip;306;0;0,666666;1
  579;C;CRYR0G_Graph;2068;1;1;1;140;612,5;TermStrip;307;0;0,666666;1
  580;C;CRYR1-_Graph;2068;1;1;1;778,75;551,25;TermStrip;308;0;1;1
  581;C;CRYR1A_Graph;2068;1;1;1;735;573,125;TermStrip;309;0;0,666666;1
  582;C;CRYR3-_Graph;2068;1;1;1;161,875;630;TermStrip;310;0;1,666667;1
  583;C;CRYR31_Graph;2068;1;1;1;844,375;599,375;TermStrip;311;0;1;1
  584;C;CRYR32_Graph;2068;1;1;1;840;573,125;TermStrip;312;0;1;1
  585;C;CRYR3U_Graph;2068;1;1;1;743,75;525;TermStrip;313;0;0,666666;1
  586;C;CRYR3V_Graph;2068;1;1;1;717,5;538,125;TermStrip;314;0;0,666666;1
  587;C;CRYR4-_Graph;2068;1;1;1;691,25;494,375;TermStrip;315;0;2;1
  588;C;DEWP2Q_Graph;2068;1;1;1;564,375;503,125;TermStrip;316;0;0,666666;1
  589;C;DEWP2R_Graph;2068;1;1;1;595;507,5;TermStrip;317;0;0,666666;1
  590;C;DEWP3-_Graph;2068;1;1;1;573,125;542,5;TermStrip;318;0;3,333333;1
  591;C;DUNB1Q_Graph;2068;1;1;1;271,25;643,125;TermStrip;319;0;1;1
  592;C;DUNB1R_Graph;2068;1;1;1;249,375;625,625;TermStrip;320;0;1;1
  593;C;DUNB1S_Graph;2068;1;1;1;249,375;682,5;TermStrip;321;0;0,666666;1
  594;C;DUNB1T_Graph;2068;1;1;1;214,375;673,75;TermStrip;322;0;0,666666;1
  595;C;DUNB3A_Graph;2068;1;1;1;210;638,75;TermStrip;323;0;3,666667;1
  596;C;DUNB3B_Graph;2068;1;1;1;218,75;708,75;TermStrip;324;0;3,666667;1
  597;C;DUNE0G_Graph;2068;1;1;1;481,25;70;TermStrip;325;0;0,666666;1
  598;C;DUNE1-_Graph;2068;1;1;1;468,125;166,25;TermStrip;326;0;1,333333;1
  599;C;DUNE3-_Graph;2068;1;1;1;485,625;91,875;TermStrip;327;0;2,333333;1
  600;C;ECCL1-_Graph;2068;1;1;1;350;288,75;TermStrip;328;0;2,666667;1
  601;C;ECCL3-_Graph;2068;1;1;1;310,625;227,5;TermStrip;329;0;3,333333;1
  602;C;ECCL3U_Graph;2068;1;1;1;363,125;328,125;TermStrip;330;0;0,666666;1
  603;C;ECCL3V_Graph;2068;1;1;1;376,25;328,125;TermStrip;331;0;0,666666;1
  604;C;ECCL4A_Graph;2068;1;1;1;415,625;371,875;TermStrip;332;0;2;1
  605;C;ECCL4B_Graph;2068;1;1;1;411,25;363,125;TermStrip;333;0;2;1
  606;C;ECCL4C_Graph;2068;1;1;1;350;398,125;PointTerm;334;0;1;1
  607;C;ECCL4D_Graph;2068;1;1;1;336,875;363,125;PointTerm;335;0;1;1
  608;C;FALL0A_Graph;2068;1;1;1;791,875;293,125;TermStrip;336;0;0,666666;1
  609;C;FALL0B_Graph;2068;1;1;1;813,75;328,125;TermStrip;337;0;0,666666;1
  610;C;FALL3A_Graph;2068;1;1;1;765,625;336,875;TermStrip;338;0;1;1
  611;C;FALL3B_Graph;2068;1;1;1;778,75;358,75;TermStrip;339;0;1;1
  612;C;FALL4-_Graph;2068;1;1;1;726,25;385;TermStrip;340;0;1,333333;1
  613;C;GALA1-_Graph;2068;1;1;1;376,25;196,875;TermStrip;341;0;2;1
  614;C;GALA3-_Graph;2068;1;1;1;319,375;170,625;TermStrip;342;0;3,333333;1
  615;C;Graphical Net Object115;2068;-16777216;1;1;915,1042;479,0625;Compd_lin;77;247;1;1
  616;C;Graphical Net Object116;2068;-16777216;1;1;836,3542;433,125;Compd_lin;78;205;1;1
  617;C;Graphical Net Object117;2068;-16777216;1;1;625,625;551,25;d_genstat;128;0;1;1
  618;C;Graphical Net Object118;2068;-16777216;1;1;599,375;420;d_genstat;132;0;1;1
  619;C;Graphical Net Object119;2068;-16777216;1;1;481,25;52,5;d_genstat;151;0;1;1
  620;C;Graphical Net Object120;2068;-16777216;1;1;704,375;140;d_genstat;129;0;1;1
  621;C;Graphical Net Object121;2068;-16777216;1;1;296,0417;210;d_genstat;126;0;1;1
  622;C;Graphical Net Object122;2068;-16777216;1;1;554,375;525;d_genstat;123;0;1;1
  623;C;Graphical Net Object123;2068;-16777216;1;1;310,625;153,125;d_genstat;127;0;1;1
  624;C;Graphical Net Object124;2068;-16777216;1;1;551,25;275,625;d_genstat;122;0;1;1
  625;C;Graphical Net Object125;2068;-16777216;1;1;238,875;210;d_genstat;121;0;1;1
  626;C;Graphical Net Object126;2068;-16777216;1;1;430,2083;43,75;d_genstat;154;0;1;1
  627;C;Graphical Net Object127;2068;-16777216;1;1;704,375;175;d_genstat;93;180;1;1
  628;C;Graphical Net Object128;2068;-16777216;1;1;462,2917;76,5625;d_lin;220;349;1;1
  629;C;Graphical Net Object129;2068;-16777216;1;1;737,1875;483,4375;d_lin;213;72;1;1
  630;C;Graphical Net Object130;2068;-16777216;1;1;754,6875;610,3125;d_lin;207;152;1;1
  631;C;Graphical Net Object131;2068;-16777216;1;1;749,2188;496,5625;d_lin;212;93;1;1
  632;C;Graphical Net Object132;2068;-16777216;1;1;250,1042;695,625;d_tr2;461;177;1;1
  633;C;Graphical Net Object133;2068;-16777216;1;1;780,2083;708,75;d_tr2;443;220;1;1
  634;C;Graphical Net Object134;2068;-16777216;1;1;445,5208;61,25;d_tr2;478;270;1;1
  635;C;Graphical Net Object135;2068;-16777216;1;1;858,2292;575,3125;d_tr2;456;97;1;1
  636;C;Graphical Net Object136;2068;-16777216;1;1;200,5208;691,25;d_tr2;462;218;1;1
  637;C;Graphical Net Object137;2068;-16777216;1;1;564,375;61,25;d_tr2;482;90;1;1
  638;C;Graphical Net Object138;2068;-16777216;1;1;798,4375;343,4375;d_tr2;469;45;1;1
  639;C;Graphical Net Object139;2068;-16777216;1;1;182,2917;710,9375;d_tr2;491;312;1;1
  640;C;Graphical Net Object140;2068;-16777216;1;1;780,9375;315;d_tr2;468;27;1;1
  641;C;Graphical Net Object141;2068;-16777216;1;1;947,1875;450,625;d_tr2;480;21;1;1
  642;C;Graphical Net Object142;2068;-16777216;1;1;844,375;400,3125;d_tr2;481;0;1;1
  643;C;Graphical Net Object143;2068;-16777216;1;1;776,5625;673,75;d_tr2;493;166;1;1
  644;C;Graphical Net Object144;2068;-16777216;1;1;304,0625;621,25;Compd_lin;70;52;1;1
  645;C;Graphical Net Object145;2068;-16777216;1;1;282,1875;601,5625;Compd_lin;71;54;1;1
  646;C;Graphical Net Object146;2068;-16777216;1;1;513,3333;76,5625;d_lin;221;25;1;1
  647;C;Graphical Net Object147;2068;-16777216;1;1;260,3125;662,8125;d_lin;216;209;1;1
  648;C;Graphical Net Object148;2068;-16777216;1;1;234,0625;649,6875;d_lin;217;219;1;1
  649;C;Graphical Net Object149;2068;-16777216;1;1;761,9792;100,625;d_coupleRect;84;238;1;1
  650;C;Graphical Net Object150;2068;-16777216;1;1;409,0625;367,5;d_coupleRect;81;304;1;1
  651;C;Graphical Net Object151;2068;-16777216;1;1;366,25;242,8125;Compd_lin;74;2;1;1
  652;C;Graphical Net Object152;2068;-16777216;1;1;380;242,8125;Compd_lin;73;6;1;1
  653;C;Graphical Net Object153;2068;-16777216;1;1;446,25;498,75;auto-transformer;507;234;1;1
  654;C;Graphical Net Object154;2068;-16777216;1;1;446,25;498,75;auto-transformer;508;234;1;1
  655;C;Graphical Net Object155;2068;-16777216;1;1;590,625;238,4375;auto-transformer;505;309;1;1
  656;C;Graphical Net Object156;2068;-16777216;1;1;654,0625;290,9375;auto-transformer;506;310;1;1
  657;C;Graphical Net Object157;2068;-16777216;1;1;283,7917;227,5;d_lin;203;270;1;1
  658;C;Graphical Net Object158;2068;-16777216;1;1;451,9375;347,8125;d_lin;206;238;1;1
  659;C;Graphical Net Object159;2068;-16777216;1;1;589,8958;297,5;d_lin;204;36;1;1
  660;C;Graphical Net Object160;2068;-16777216;1;1;455;360,9375;d_lin;205;247;1;1
  661;C;Graphical Net Object161;2068;-16777216;1;1;576,0417;360,9375;Compd_lin;68;150;1;1
  662;C;Graphical Net Object162;2068;-16777216;1;1;179,375;634,375;d_lin;209;124;1;1
  663;C;Graphical Net Object163;2068;-16777216;1;1;570,9375;476,875;d_lin;214;14;1;1
  664;C;Graphical Net Object164;2068;-16777216;1;1;179,9219;634,375;d_lin;210;104;1;1
  665;C;Graphical Net Object165;2068;-16777216;1;1;162,4219;634,375;d_lin;208;111;1;1
  666;C;Graphical Net Object166;2068;-16777216;1;1;708,75;439,6875;d_lin;211;18;1;1
  667;C;Graphical Net Object167;2068;-16777216;1;1;601,5625;481,25;d_lin;215;14;1;1
  668;C;Graphical Net Object168;2068;-16777216;1;1;313,9583;199,0625;d_lin;223;318;1;1
  669;C;Graphical Net Object169;2068;-16777216;1;1;427,1458;181,5625;d_lin;219;246;1;1
  670;C;Graphical Net Object170;2068;-16777216;1;1;514,7917;188,125;Compd_lin;72;118;1;1
  671;C;Graphical Net Object171;2068;-16777216;1;1;495,1042;67,8125;d_lin;222;358;1;1
  672;C;Graphical Net Object172;2068;-16777216;1;1;452,8125;413,4375;Compd_lin;76;147;1;1
  673;C;Graphical Net Object173;2068;-16777216;1;1;448,4375;417,8125;Compd_lin;75;157;1;1
  674;C;Graphical Net Object174;2068;-16777216;1;1;367,9375;175;d_lin;227;328;1;1
  675;C;Graphical Net Object175;2068;-16777216;1;1;290,9375;146,5625;d_lin;228;355;1;1
  676;C;Graphical Net Object176;2068;-16777216;1;1;700;350;d_lin;226;333;1;1
  677;C;Graphical Net Object177;2068;-16777216;1;1;813,75;310,625;d_genstat;153;0;1;1
  678;C;Graphical Net Object178;2068;-16777216;1;1;297,5;74,375;d_genstat;155;0;1;1
  679;C;Graphical Net Object179;2068;-16777216;1;1;791,875;275,625;d_genstat;152;0;1;1
  680;C;Graphical Net Object180;2068;-16777216;1;1;560;13,125;d_genstat;159;0;1;1
  681;C;Graphical Net Object181;2068;-16777216;1;1;236,25;245;d_genstat;133;180;1;1
  682;C;Graphical Net Object182;2068;-16777216;1;1;831,25;656,25;d_genstat;145;0;1;1
  683;C;Graphical Net Object183;2068;-16777216;1;1;587,7083;455;d_genstat;108;180;1;1
  684;C;Graphical Net Object184;2068;-16777216;1;1;686,875;140;d_genstat;105;0;1;1
  685;C;Graphical Net Object185;2068;-16777216;1;1;958,125;415,625;d_genstat;156;0;1;1
  686;C;Graphical Net Object186;2068;-16777216;1;1;840;367,5;d_genstat;157;0;1;1
  687;C;Graphical Net Object187;2068;-16777216;1;1;329,5833;404,6875;d_lin;224;252;1;1
  688;C;Graphical Net Object188;2068;-16777216;1;1;316,4583;363,125;d_lin;225;270;1;1
  689;C;Graphical Net Object189;2068;-16777216;1;1;606,6667;605,9375;Compd_lin;67;345;1;1
  690;C;Graphical Net Object190;2068;-16777216;1;1;648,9583;605,9375;Compd_lin;66;9;1;1
  691;C;Graphical Net Object191;2068;-16777216;1;1;660,625;678,125;d_svs;279;0;1;1
  692;C;Graphical Net Object192;2068;-16777216;1;1;860,4167;490;d_svs;281;0;1;1
  693;C;Graphical Net Object193;2068;-16777216;1;1;825,4167;455;d_svs;282;0;1;1
  694;C;Graphical Net Object194;2068;-16777216;1;1;604,4792;527,1875;d_ser_rea;278;11;1;1
  695;C;Graphical Net Object195;2068;-16777216;1;1;608,125;682,5;d_svs;280;0;1;1
  696;C;Graphical Net Object196;2068;-16777216;1;1;612,5;717,5;d_asmg;63;180;1;1
  697;C;Graphical Net Object197;2068;-16777216;1;1;581,875;420;d_genstat;96;0;1;1
  698;C;Graphical Net Object198;2068;-16777216;1;1;606,6667;43,75;d_genstat;158;0;1;1
  699;C;Graphical Net Object199;2068;-16777216;1;1;300,625;188,125;d_genstat;91;180;1;1
  700;C;Graphical Net Object200;2068;-16777216;1;1;551,25;310,625;d_genstat;86;180;1;1
  701;C;Graphical Net Object201;2068;-16777216;1;1;281,4583;245;d_genstat;90;180;1;1
  702;C;Graphical Net Object202;2068;-16777216;1;1;611,0417;586,25;d_genstat;92;180;1;1
  703;C;Graphical Net Object203;2068;-16777216;1;1;210;621,25;d_load;241;0;1;1
  704;C;Graphical Net Object204;2068;-16777216;1;1;181,125;656,25;d_genstat;136;180;1;1
  705;C;Graphical Net Object205;2068;-16777216;1;1;882,2917;560;d_genstat;149;0;1;1
  706;C;Graphical Net Object206;2068;-16777216;1;1;767,0833;700;d_genstat;146;0;1;1
  707;C;Graphical Net Object207;2068;-16777216;1;1;234,0625;621,25;d_genstat;124;0;1;1
  708;C;Graphical Net Object208;2068;-16777216;1;1;200,375;656,25;d_genstat;88;180;1;1
  709;C;Graphical Net Object209;2068;-16777216;1;1;175;686,875;d_symg;285;0;1;1
  710;C;Graphical Net Object210;2068;-16777216;1;1;202,7083;691,25;d_genstat;89;0;1;1
  711;C;Graphical Net Object211;2068;-16777216;1;1;198,125;726,25;d_genstat;101;180;1;1
  712;C;Graphical Net Object212;2068;-16777216;1;1;218,75;691,25;d_genstat;137;0;1;1
  713;C;Graphical Net Object213;2068;-16777216;1;1;222,0312;621,25;d_genstat;100;0;1;1
  714;C;Graphical Net Object214;2068;-16777216;1;1;225,625;726,25;d_genstat;125;180;1;1
  715;C;Graphical Net Object215;2068;-16777216;1;1;581,875;560;d_genstat;87;180;1;1
  716;C;Graphical Net Object216;2068;-16777216;1;1;254,625;210;d_genstat;85;0;1;1
  717;C;Graphical Net Object217;2068;-16777216;1;1;618,3333;525;d_ser_rea;277;9;1;1
  718;C;Graphical Net Object218;2068;-16777216;1;1;761,25;91,875;d_load;254;0;1;1
  719;C;Graphical Net Object219;2068;-16777216;1;1;752,5;74,375;d_load;253;0;1;1
  720;C;Graphical Net Object220;2068;-16777216;1;1;234,7917;691,25;d_load;242;0;1;1
  721;C;Graphical Net Object221;2068;-16777216;1;1;211,875;726,25;d_genstat;113;180;1;1
  722;C;Graphical Net Object222;2068;-16777216;1;1;249,375;245;d_genstat;109;180;1;1
  723;C;Graphical Net Object223;2068;-16777216;1;1;566,875;525;d_genstat;111;0;1;1
  724;C;Graphical Net Object224;2068;-16777216;1;1;533,75;275,625;d_genstat;110;0;1;1
  725;C;Graphical Net Object225;2068;-16777216;1;1;328,125;153,125;d_genstat;115;0;1;1
  726;C;Graphical Net Object226;2068;-16777216;1;1;310,625;210;d_genstat;114;0;1;1
  727;C;Graphical Net Object227;2068;-16777216;1;1;740,8333;109,375;d_genstat;106;180;1;1
  728;C;Graphical Net Object228;2068;-16777216;1;1;753,375;126,875;d_genstat;131;180;1;1
  729;C;Graphical Net Object229;2068;-16777216;1;1;774,375;91,875;d_genstat;119;0;1;1
  730;C;Graphical Net Object230;2068;-16777216;1;1;735;74,375;d_genstat;118;0;1;1
  731;C;Graphical Net Object231;2068;-16777216;1;1;752,5;109,375;d_genstat;142;180;1;1
  732;C;Graphical Net Object232;2068;-16777216;1;1;769,125;126,875;d_genstat;95;180;1;1
  733;C;Graphical Net Object233;2068;-16777216;1;1;770;74,375;d_genstat;94;0;1;1
  734;C;Graphical Net Object234;2068;-16777216;1;1;787,5;91,875;d_genstat;107;0;1;1
  735;C;Graphical Net Object235;2068;-16777216;1;1;764,1667;109,375;d_genstat;130;180;1;1
  736;C;Graphical Net Object236;2068;-16777216;1;1;784,875;126,875;d_genstat;143;180;1;1
  737;C;Graphical Net Object237;2068;-16777216;1;1;219,625;656,25;d_genstat;112;180;1;1
  738;C;Graphical Net Object238;2068;-16777216;1;1;716,0417;175;d_genstat;117;180;1;1
  739;C;Graphical Net Object239;2068;-16777216;1;1;640,2083;551,25;d_genstat;116;0;1;1
  740;C;Graphical Net Object240;2068;-16777216;1;1;599,375;455;d_genstat;120;180;1;1
  741;C;Graphical Net Object241;2068;-16777216;1;1;147,2917;621,25;d_tr2;454;320;1;1
  742;C;Graphical Net Object242;2068;-16777216;1;1;866,9792;616,875;d_tr2;455;128;1;1
  743;C;Graphical Net Object243;2068;-16777216;1;1;601,875;479,0625;Compd_lin;69;281;1;1
  744;C;Graphical Net Object244;2068;-16777216;1;1;189,8958;713,125;d_lin;218;128;1;1
  745;C;Graphical Net Object245;2068;-16777216;1;1;735;522,8125;auto-transformer;498;123;1;1
  746;C;Graphical Net Object246;2068;-16777216;1;1;380,625;325,9375;auto-transformer;501;321;1;1
  747;C;Graphical Net Object247;2068;-16777216;1;1;514,0625;339,0625;auto-transformer;496;72;1;1
  748;C;Graphical Net Object248;2068;-16777216;1;1;507,5;328,125;auto-transformer;497;180;1;1
  749;C;Graphical Net Object249;2068;-16777216;1;1;382,8125;330,3125;auto-transformer;500;322;1;1
  750;C;Graphical Net Object250;2068;-16777216;1;1;610,75;439,6875;d_tr2;477;178;1;1
  751;C;Graphical Net Object251;2068;-16777216;1;1;647,5;669,375;d_tr2;448;171;1;1
  752;C;Graphical Net Object252;2068;-16777216;1;1;622,5625;437,5;d_tr2;476;176;1;1
  753;C;Graphical Net Object253;2068;-16777216;1;1;823,5938;678,125;d_tr2;442;60;1;1
  754;C;Graphical Net Object254;2068;-16777216;1;1;616,875;671,5625;d_tr2;449;180;1;1
  755;C;Graphical Net Object255;2068;-16777216;1;1;790,7812;665;d_tr2;492;145;1;1
  756;C;Graphical Net Object256;2068;-16777216;1;1;809,375;562,1875;d_tr2;453;113;1;1
  757;C;Graphical Net Object257;2068;-16777216;1;1;478,3333;80,9375;d_tr2;465;15;1;1
...


$$IntGrfcon;FID(a:40);OP(a:1);loc_name(a:80);fold_id(p);rX:SIZEROW(i);rX:0(r);rX:1(r);rX:2(r);rX:3(r);rX:4(r);rX:5(r);rY:SIZEROW(i);rY:0(r);rY:1(r);rY:2(r);rY:3(r);rY:4(r);rY:5(r);iDatConNr(i)
  1286;C;GCO_1;615;2;915,10416675359;940,625;;;;;2;479,0625;468,125;;;;;0
  1287;C;GCO_2;615;2;915,10416675359;889,58333350718;;;;;2;479,0625;490;;;;;0
  1288;C;GCO_1;616;2;836,35416675359;844,375;;;;;2;433,125;415,625;;;;;0
  1289;C;GCO_2;616;2;836,35416675359;828,33333350718;;;;;2;433,125;450,625;;;;;0
  1290;C;GCO_1;617;2;625,625;625,625;;;;;2;555,625;568,75;;;;;0
  1291;C;GCO_1;618;2;599,375;599,375;;;;;2;424,375;437,5;;;;;0
  1292;C;GCO_1;619;2;481,25;481,25;;;;;2;56,875;70;;;;;0
  1293;C;GCO_1;620;2;704,375;704,375;;;;;2;144,375;157,5;;;;;0
  1294;C;GCO_1;621;2;296,04166701436;296,04166701436;;;;;2;214,375;227,5;;;;;0
  1295;C;GCO_1;622;2;554,375000447035;554,375000447035;;;;;2;529,375;542,5;;;;;0
  1296;C;GCO_1;623;2;310,625000208616;310,625000208616;;;;;2;157,5;170,625;;;;;0
  1297;C;GCO_1;624;2;551,25;551,25;;;;;2;280;293,125;;;;;0
  1298;C;GCO_1;625;2;238,875;238,875;;;;;2;214,375;227,5;;;;;0
  1299;C;GCO_1;626;2;430,20833324641;430,20833324641;;;;;2;48,125;61,25;;;;;0
  1300;C;GCO_1;627;2;704,375;704,375;;;;;2;170,625;157,5;;;;;0
  1301;C;GCO_1;628;2;462,29166701436;465,208334028721;;;;;2;76,5625;91,875;;;;;0
  1302;C;GCO_2;628;2;462,29166701436;459,375;;;;;2;76,5625;61,25;;;;;1
  1303;C;GCO_1;629;2;737,1875;704,375;;;;;2;483,4375;494,375;;;;;0
  1304;C;GCO_2;629;2;737,1875;770;;;;;2;483,4375;472,5;;;;;1
  1305;C;GCO_1;630;2;754,6875;735;;;;;2;610,3125;573,125;;;;;0
  1306;C;GCO_2;630;2;754,6875;774,375;;;;;2;610,3125;647,5;;;;;1
  1307;C;GCO_1;631;2;749,21875;704,375;;;;;2;496,5625;494,375;;;;;0
  1308;C;GCO_2;631;2;749,21875;794,0625;;;;;2;496,5625;498,75;;;;;1
  1309;C;GCO_1;632;2;249,861485563148;249,375;;;;;2;691,256735961135;682,5;;;;;0
  1310;C;GCO_2;632;2;250,346848465572;250,833334028721;;;;;2;699,993264038864;708,75;;;;;1
  1311;C;GCO_1;633;2;783,009140115475;787,5;;;;;2;705,389031893551;700;;;;;0
  1312;C;GCO_2;633;2;777,407526638115;772,91666675359;;;;;2;712,110968106449;717,5;;;;;1
  1313;C;GCO_1;634;2;449,895833376795;455;;;;;2;61,25;61,25;;;;;0
  1314;C;GCO_2;634;2;441,145833376795;436,04166675359;;;;;2;61,25;61,25;;;;;1
  1315;C;GCO_1;635;2;853,885330454972;840;;;;;2;574,791239658569;573,125;;;;;0
  1316;C;GCO_2;635;2;862,573002791438;876,45833324641;;;;;2;575,833760341431;577,5;;;;;1
  1317;C;GCO_1;636;2;203,236408409134;214,375;;;;;2;687,819799551147;673,75;;;;;0
  1318;C;GCO_2;636;2;197,805257562145;186,666665971279;;;;;2;694,680200448853;708,75;;;;;1
  1319;C;GCO_1;637;2;560;529,375;;;;;2;61,25;61,25;;;;;0
  1320;C;GCO_2;637;2;568,75;599,375;;;;;2;61,25;61,25;;;;;1
  1321;C;GCO_1;638;2;795,343907832309;783,125;;;;;2;346,531092167691;358,75;;;;;0
  1322;C;GCO_2;638;2;801,531092167691;813,75;;;;;2;340,343907832309;328,125;;;;;1
  1323;C;GCO_1;639;2;185,543578504362;189,58333324641;;;;;2;713,864220710486;717,5;;;;;0
  1324;C;GCO_2;639;2;179,039754742048;175;;;;;2;708,010779289514;704,375;;;;;1
  1325;C;GCO_1;640;2;778,980940519688;770;;;;;2;318,913118960625;336,875;;;;;0
  1326;C;GCO_2;640;2;782,894059480312;791,875;;;;;2;311,086881039375;293,125;;;;;1
  1327;C;GCO_1;641;2;945,651334943051;940,625;;;;;2;454,721440151865;468,125;;;;;0
  1328;C;GCO_2;641;2;948,723665056949;953,75;;;;;2;446,528559848135;433,125;;;;;1
  1329;C;GCO_1;642;2;844,375;844,375;;;;;2;404,6875;415,625;;;;;0
  1330;C;GCO_2;642;2;844,375;844,375;;;;;2;395,9375;385;;;;;1
  1331;C;GCO_1;643;2;775,501406640466;770;;;;;2;669,505626561864;647,5;;;;;0
  1332;C;GCO_2;643;2;777,623593359534;783,125;;;;;2;677,994373438136;700;;;;;1
  1333;C;GCO_1;644;2;304,0625;275,625;;;;;2;621,25;643,125;;;;;0
  1334;C;GCO_2;644;2;304,0625;332,5;;;;;2;621,25;599,375;;;;;1
  1335;C;GCO_1;645;2;282,1875;249,375;;;;;2;601,5625;625,625;;;;;0
  1336;C;GCO_2;645;2;282,1875;315;;;;;2;601,5625;577,5;;;;;1
  1337;C;GCO_1;646;2;513,333332985639;506,041665971279;;;;;2;76,5625;91,875;;;;;0
  1338;C;GCO_2;646;2;513,333332985639;520,625;;;;;2;76,5625;61,25;;;;;1
  1339;C;GCO_1;647;2;260,3125;271,25;;;;;2;662,8125;643,125;;;;;0
  1340;C;GCO_2;647;2;260,3125;249,375;;;;;2;662,8125;682,5;;;;;1
  1341;C;GCO_1;648;2;234,0625;253,75;;;;;2;649,6875;625,625;;;;;0
  1342;C;GCO_2;648;2;234,0625;214,375;;;;;2;649,6875;673,75;;;;;1
  1343;C;GCO_1;649;2;762,718969809807;775,833334028721;;;;;2;100,157756140918;91,875;;;;;0
  1344;C;GCO_2;649;2;761,239364218914;748,125;;;;;2;101,092243859082;109,375;;;;;1
  1345;C;GCO_1;650;2;409,790544007546;415,625;;;;;2;367,985362671697;371,875;;;;;0
  1346;C;GCO_2;650;2;408,334455992454;402,5;;;;;2;367,014637328303;363,125;;;;;1
  1347;C;GCO_1;651;2;366,250000223517;365,000000447035;;;;;2;242,8125;288,75;;;;;1
  1348;C;GCO_2;651;2;366,250000223517;367,5;;;;;2;242,8125;196,875;;;;;0
  1349;C;GCO_1;652;2;380,000000372529;375,000000745058;;;;;2;242,8125;288,75;;;;;1
  1350;C;GCO_2;652;2;380,000000372529;385;;;;;2;242,8125;196,875;;;;;0
  1351;C;GCO_1;653;3;449,788220368826;475,625000447035;475,625000447035;;;;3;496,176748822672;463,75;463,75;;;;0
  1352;C;GCO_2;653;3;442,711779631174;392,29166649282;392,29166649282;;;;3;501,323251177328;533,75;533,75;;;;1
  1353;C;GCO_3;653;3;443,676748822672;446,25;446,25;;;;3;495,211779631173;511,875;511,875;;;;2
  1354;C;GCO_1;654;3;449,788220368826;488,125000149012;488,125000149012;;;;3;496,176748822672;463,75;463,75;;;;0
  1355;C;GCO_2;654;3;442,711779631174;403,95833350718;403,95833350718;;;;3;501,323251177328;533,75;533,75;;;;1
  1356;C;GCO_3;654;3;443,676748822672;433,125;433,125;;;;3;495,211779631173;498,75;498,75;;;;2
  1357;C;GCO_1;655;3;594,020498750509;612,5;612,5;;;;3;241,196342734788;266,875;266,875;;;;0
  1358;C;GCO_2;655;3;587,229501249491;555,625;555,625;;;;3;235,678657265212;210;210;;;;1
  1359;C;GCO_3;655;3;593,383842734788;599,375;599,375;;;;3;235,042001249491;223,125;223,125;;;;2
  1360;C;GCO_1;656;3;657,40231499849;682,5;682,5;;;;3;293,763497306415;315;315;;;;0
  1361;C;GCO_2;656;3;650,72268500151;638,75;638,75;;;;3;288,111502693586;266,875;266,875;;;;1
  1362;C;GCO_3;656;3;656,888497306414;665;665;;;;3;287,59768500151;275,625;275,625;;;;2
  1363;C;GCO_1;657;2;283,79166701436;286,125;;;;;2;227,5;227,5;;;;;0
  1364;C;GCO_2;657;2;283,79166701436;281,458334028721;;;;;2;227,5;227,5;;;;;1
  1365;C;GCO_1;658;2;451,9375;476,875;;;;;2;347,8125;332,5;;;;;0
  1366;C;GCO_2;658;2;451,9375;427;;;;;2;347,8125;363,125;;;;;1
  1367;C;GCO_1;659;2;589,895832985639;567,291665971279;;;;;2;297,5;328,125;;;;;0
  1368;C;GCO_2;659;2;589,895832985639;612,5;;;;;2;297,5;266,875;;;;;1
  1369;C;GCO_1;660;2;455;481,25;;;;;2;360,9375;350;;;;;0
  1370;C;GCO_2;660;2;455;428,75;;;;;2;360,9375;371,875;;;;;1
  1371;C;GCO_1;661;2;576,04166649282;557,08333298564;;;;;2;360,9375;328,125;;;;;0
  1372;C;GCO_2;661;2;576,04166649282;595;;;;;2;360,9375;393,75;;;;;0
  1373;C;GCO_1;662;2;179,374999608845;172,81249973923;;;;;2;634,375;630;;;;;0
  1374;C;GCO_2;662;2;179,374999608845;185,937499478459;;;;;2;634,375;638,75;;;;;1
...